
  EPA STORM WATER MANAGEMENT MODEL - VERSION 5.1 (Build 5.3.0.dev0)
  --------------------------------------------------------------

  
  *********************************************************
  NOTE: The summary statistics displayed in this report are
  based on results found at every computational time step,  
  not just on results from each reporting time step.
  *********************************************************
  
  ****************
  Analysis Options
  ****************
  Flow Units ............... CMS
  Process Models:
    Rainfall/Runoff ........ YES
    RDII ................... NO
    Snowmelt ............... NO
    Groundwater ............ NO
    Flow Routing ........... YES
    Ponding Allowed ........ NO
    Water Quality .......... NO
  Infiltration Method ...... HORTON
  Flow Routing Method ...... DYNWAVE
  Surcharge Method ......... EXTRAN
  Starting Date ............ 12/07/2009 20:20:00
  Ending Date .............. 12/08/2009 03:55:00
  Antecedent Dry Days ...... 0.0
  Report Time Step ......... 00:05:00
  Wet Time Step ............ 00:05:00
  Dry Time Step ............ 01:00:00
  Routing Time Step ........ 30.00 sec
  Variable Time Step ....... YES
  Maximum Trials ........... 8
  Number of Threads ........ 1
  Head Tolerance ........... 0.001500 m
  
  
  **************************        Volume         Depth
  Runoff Quantity Continuity     hectare-m            mm
  **************************     ---------       -------
  Total Precipitation ......         1.656         9.188
  Evaporation Loss .........         0.000         0.000
  Infiltration Loss ........         0.000         0.000
  Surface Runoff ...........         1.613         8.951
  Final Storage ............         0.045         0.250
  Continuity Error (%) .....        -0.139
  
  
  **************************        Volume        Volume
  Flow Routing Continuity        hectare-m      10^6 ltr
  **************************     ---------     ---------
  Dry Weather Inflow .......         0.082         0.817
  Wet Weather Inflow .......         1.613        16.130
  Groundwater Inflow .......         0.000         0.000
  RDII Inflow ..............         0.000         0.000
  External Inflow ..........         0.000         0.000
  External Outflow .........         0.465         4.646
  Flooding Loss ............         0.237         2.369
  Evaporation Loss .........         0.000         0.000
  Exfiltration Loss ........         0.000         0.000
  Initial Stored Volume ....         0.000         0.000
  Final Stored Volume ......         0.762         7.624
  Continuity Error (%) .....        13.618
  
  
  *************************
  Highest Continuity Errors
  *************************
  Node T2 (36.69%)
  Node T4 (27.85%)
  Node T5 (24.14%)
  Node T3 (23.97%)
  Node T6 (16.81%)
  
  
  ***************************
  Time-Step Critical Elements
  ***************************
  Link C15 (42.25%)
  
  
  ********************************
  Highest Flow Instability Indexes
  ********************************
  Link V3 (6)
  Link C13 (6)
  Link C3 (5)
  Link C11 (5)
  Link C19 (4)
  
  
  *************************
  Routing Time Step Summary
  *************************
  Minimum Time Step           :     0.20 sec
  Average Time Step           :    25.60 sec
  Maximum Time Step           :    30.00 sec
  Percent in Steady State     :     0.77
  Average Iterations per Step :     2.38
  Percent Not Converging      :     1.32
  
  
  ***************************
  Subcatchment Runoff Summary
  ***************************
  
  ------------------------------------------------------------------------------------------------------------------------------
                            Total      Total      Total      Total     Imperv       Perv      Total       Total     Peak  Runoff
                           Precip      Runon       Evap      Infil     Runoff     Runoff     Runoff      Runoff   Runoff   Coeff
  Subcatchment                 mm         mm         mm         mm         mm         mm         mm    10^6 ltr      CMS
  ------------------------------------------------------------------------------------------------------------------------------
  SC01                      10.77       0.00       0.00       0.00      10.63       0.00      10.63        3.51     0.75   0.987
  SC010                     10.77       0.00       0.00       0.00      10.55       0.00      10.55        1.24     0.25   0.980
  SC02                       9.09       0.00       0.00       0.00       8.94       0.00       8.94        2.03     0.37   0.983
  SC03                       7.81       0.00       0.00       0.00       7.72       0.00       7.72        1.39     0.23   0.988
  SC04                       9.09       0.00       0.00       0.00       8.69       0.00       8.69        0.60     0.09   0.956
  SC05                      10.77       0.00       0.00       0.00      10.61       0.00      10.61        1.66     0.35   0.985
  SC06                       8.46       0.00       0.00       0.00       7.97       0.00       7.97        2.60     0.39   0.942
  SC07                       9.09       0.00       0.00       0.00       8.70       0.00       8.70        0.41     0.06   0.957
  SC08                       7.81       0.00       0.00       0.00       7.61       0.00       7.61        2.13     0.34   0.974
  SC09                       8.46       0.00       0.00       0.00       8.19       0.00       8.19        0.57     0.10   0.969
  
  
  ******************
  Node Depth Summary
  ******************
  
  ---------------------------------------------------------------------------------
                                 Average  Maximum  Maximum  Time of Max    Reported
                                   Depth    Depth      HGL   Occurrence   Max Depth
  Node                 Type       Meters   Meters   Meters  days hr:min      Meters
  ---------------------------------------------------------------------------------
  CSO10                JUNCTION     0.23     1.00    31.00     0  04:43        1.00
  CSO7                 JUNCTION     0.13     0.81    34.81     0  04:53        0.64
  CSO8                 JUNCTION     0.18     0.66    32.66     0  04:38        0.63
  CSO9                 JUNCTION     0.17     0.93    40.93     0  04:30        0.93
  J1                   JUNCTION     0.08     0.20    34.20     0  04:50        0.20
  J10                  JUNCTION     0.11     0.23    29.23     0  04:41        0.23
  J11                  JUNCTION     0.12     0.25    31.25     0  04:42        0.25
  J12                  JUNCTION     0.26     0.80    26.80     0  07:28        0.79
  J13                  JUNCTION     0.08     0.16    29.16     0  04:45        0.16
  J14                  JUNCTION     0.09     0.19    20.19     0  07:27        0.19
  J15                  JUNCTION     0.18     0.36    15.36     0  04:54        0.36
  J16                  JUNCTION     0.09     0.21    30.21     0  04:50        0.21
  J17                  JUNCTION     0.06     0.11    20.11     0  04:35        0.11
  J18                  JUNCTION     0.08     0.16    29.16     0  05:04        0.16
  J19                  JUNCTION     0.13     0.17     8.17     0  04:51        0.17
  J2                   JUNCTION     0.06     0.08    25.08     0  05:59        0.08
  J3                   JUNCTION     0.09     0.15    18.15     0  07:35        0.15
  J4                   JUNCTION     0.13     0.58    33.58     0  04:53        0.46
  J5                   JUNCTION     0.07     0.13    32.13     0  04:54        0.13
  J6                   JUNCTION     0.05     0.08    25.08     0  04:40        0.08
  J7                   JUNCTION     0.09     0.20    39.20     0  04:36        0.20
  J8                   JUNCTION     0.12     0.23    36.23     0  04:55        0.23
  J9                   JUNCTION     0.11     0.16    29.16     0  05:46        0.16
  Out_to_WWTP          OUTFALL      0.13     0.17     6.17     0  06:06        0.17
  T1                   STORAGE      2.73     5.00    15.00     0  04:50        5.00
  T2                   STORAGE      1.80     4.25    25.25     0  06:40        4.25
  T3                   STORAGE      2.06     4.81    26.81     0  07:25        4.81
  T4                   STORAGE      1.61     4.17    31.17     0  06:58        4.17
  T5                   STORAGE      2.38     5.00    32.00     0  05:12        5.00
  T6                   STORAGE      2.16     5.00    36.00     0  05:15        5.00
  
  
  *******************
  Node Inflow Summary
  *******************
  
  -------------------------------------------------------------------------------------------------
                                  Maximum  Maximum                  Lateral       Total        Flow
                                  Lateral    Total  Time of Max      Inflow      Inflow     Balance
                                   Inflow   Inflow   Occurrence      Volume      Volume       Error
  Node                 Type           CMS      CMS  days hr:min    10^6 ltr    10^6 ltr     Percent
  -------------------------------------------------------------------------------------------------
  CSO10                JUNCTION     0.248    0.248     0  04:50        1.27        1.27       0.038
  CSO7                 JUNCTION     0.066    0.066     0  04:50       0.478       0.478       0.068
  CSO8                 JUNCTION     0.336    0.336     0  04:40        2.13        2.13      -0.007
  CSO9                 JUNCTION     0.098    0.098     0  04:35       0.609       0.609       0.033
  J1                   JUNCTION     0.352    0.352     0  04:50        1.78        1.78      -0.024
  J10                  JUNCTION     0.234    0.562     0  04:40        1.47         3.6      -0.046
  J11                  JUNCTION     0.000    0.336     0  04:40           0        2.13       0.211
  J12                  JUNCTION     0.000    0.685     0  04:54           0        6.02      11.694
  J13                  JUNCTION     0.370    0.370     0  04:45        2.14        2.14      -0.198
  J14                  JUNCTION     0.000    0.186     0  07:25           0        1.44       0.668
  J15                  JUNCTION     0.000    1.150     0  04:51           0         7.8       1.154
  J16                  JUNCTION     0.756    0.756     0  04:50        3.63        3.63      -0.017
  J17                  JUNCTION     0.000    0.077     0  04:35           0       0.541       0.928
  J18                  JUNCTION     0.000    0.202     0  05:04           0        1.23       0.052
  J19                  JUNCTION     0.000    0.271     0  04:50           0        4.66       0.247
  J2                   JUNCTION     0.000    0.039     0  05:12           0       0.636       0.848
  J3                   JUNCTION     0.000    0.239     0  07:28           0        2.44       1.841
  J4                   JUNCTION     0.000    0.066     0  04:50           0       0.478       0.370
  J5                   JUNCTION     0.095    0.157     0  04:53       0.628         1.1       0.088
  J6                   JUNCTION     0.000    0.039     0  04:40           0       0.382       0.667
  J7                   JUNCTION     0.000    0.098     0  04:35           0       0.609       0.332
  J8                   JUNCTION     0.393    0.481     0  04:55         2.8        3.41       0.110
  J9                   JUNCTION     0.000    0.175     0  05:15           0        2.24       0.134
  Out_to_WWTP          OUTFALL      0.000    0.271     0  04:51           0        4.65       0.000
  T1                   STORAGE      0.000    1.131     0  04:54           0        7.71       9.059
  T2                   STORAGE      0.000    0.368     0  04:45           0        2.14      57.949
  T3                   STORAGE      0.000    0.682     0  04:56           0        5.39      31.524
  T4                   STORAGE      0.000    0.156     0  04:54           0         1.1      38.606
  T5                   STORAGE      0.000    0.351     0  04:50           0        1.78      31.825
  T6                   STORAGE      0.000    0.481     0  04:55           0        3.41      20.200
  
  
  **********************
  Node Surcharge Summary
  **********************
  
  Surcharging occurs when water rises above the top of the highest conduit.
  ---------------------------------------------------------------------
                                               Max. Height   Min. Depth
                                   Hours       Above Crown    Below Rim
  Node                 Type      Surcharged         Meters       Meters
  ---------------------------------------------------------------------
  CSO10                JUNCTION        0.54          0.560        0.000
  CSO7                 JUNCTION        0.44          0.552        0.393
  CSO8                 JUNCTION        0.32          0.205        1.342
  CSO9                 JUNCTION        0.60          0.613        1.069
  J4                   JUNCTION        0.37          0.282        1.418
  
  
  *********************
  Node Flooding Summary
  *********************
  
  Flooding refers to all water that overflows a node, whether it ponds or not.
  --------------------------------------------------------------------------
                                                             Total   Maximum
                                 Maximum   Time of Max       Flood    Ponded
                        Hours       Rate    Occurrence      Volume     Depth
  Node                 Flooded       CMS   days hr:min    10^6 ltr    Meters
  --------------------------------------------------------------------------
  CSO10                   0.35     0.046      0  04:50       0.037     0.000
  T1                      1.15     0.860      0  04:54       1.859     0.000
  T5                      0.82     0.193      0  05:12       0.281     0.000
  T6                      0.53     0.206      0  05:15       0.186     0.000
  
  
  **********************
  Storage Volume Summary
  **********************
  
  --------------------------------------------------------------------------------------------------
                         Average     Avg  Evap Exfil       Maximum     Max    Time of Max    Maximum
                          Volume    Pcnt  Pcnt  Pcnt        Volume    Pcnt     Occurrence    Outflow
  Storage Unit           1000 m3    Full  Loss  Loss       1000 m3    Full    days hr:min        CMS
  --------------------------------------------------------------------------------------------------
  T1                       0.382      55     0     0         0.700     100       0  04:50      0.271
  T2                       0.361      36     0     0         0.850      85       0  06:40      0.077
  T3                       1.072      41     0     0         2.501      96       0  07:25      0.296
  T4                       0.161      32     0     0         0.417      83       0  06:58      0.039
  T5                       0.238      48     0     0         0.500     100       0  05:12      0.039
  T6                       0.260      43     0     0         0.600     100       0  05:15      0.175
  
  
  ***********************
  Outfall Loading Summary
  ***********************
  
  -----------------------------------------------------------
                         Flow       Avg       Max       Total
                         Freq      Flow      Flow      Volume
  Outfall Node           Pcnt       CMS       CMS    10^6 ltr
  -----------------------------------------------------------
  Out_to_WWTP           98.97     0.180     0.271       4.646
  -----------------------------------------------------------
  System                98.97     0.180     0.271       4.646
  
  
  ********************
  Link Flow Summary
  ********************
  
  -----------------------------------------------------------------------------
                                 Maximum  Time of Max   Maximum    Max/    Max/
                                  |Flow|   Occurrence   |Veloc|    Full    Full
  Link                 Type          CMS  days hr:min     m/sec    Flow   Depth
  -----------------------------------------------------------------------------
  C1                   CONDUIT     0.039     0  05:53      1.10    0.01    0.11
  C10                  CONDUIT     0.481     0  04:55      1.55    0.05    0.58
  C11                  CONDUIT     0.235     0  07:35      2.03    0.01    0.12
  C12                  CONDUIT     0.175     0  05:47      1.15    0.01    0.23
  C13                  CONDUIT     0.682     0  04:56      1.39    0.04    0.70
  C14                  CONDUIT     0.271     0  04:51      2.08    0.02    0.09
  C15                  CONDUIT     0.336     0  04:40      2.67    1.07    0.77
  C16                  CONDUIT     0.335     0  04:43      1.58    0.03    0.12
  C17                  CONDUIT     0.561     0  04:42      2.62    0.03    0.21
  C18                  CONDUIT     0.368     0  04:45      5.94    0.01    0.54
  C19                  CONDUIT     0.072     0  04:35      0.94    0.02    0.21
  C2                   CONDUIT     0.037     0  04:40      1.29    0.04    0.17
  C20                  CONDUIT     0.753     0  04:50      4.25    0.02    0.14
  C21                  CONDUIT     0.202     0  05:04      1.83    1.16    0.69
  C22                  CONDUIT     0.202     0  05:04      1.55    0.09    0.33
  C23                  CONDUIT     1.131     0  04:54      1.16    0.12    0.62
  C3                   CONDUIT     0.188     0  07:28      2.27    0.07    0.17
  C4                   CONDUIT     0.351     0  04:50      4.82    0.09    0.60
  C5                   CONDUIT     0.066     0  04:50      1.29    1.13    1.00
  C6                   CONDUIT     0.065     0  04:53      1.27    1.03    0.72
  C7                   CONDUIT     0.156     0  04:54      1.35    0.04    0.57
  C8                   CONDUIT     0.098     0  04:35      1.42    1.23    0.81
  C9                   CONDUIT     0.096     0  04:36      1.21    0.33    0.42
  V1                   ORIFICE     0.271     0  04:50                      1.00
  V2                   ORIFICE     0.077     0  04:35                      1.00
  V3                   ORIFICE     0.186     0  07:25                      1.00
  V4                   ORIFICE     0.039     0  04:40                      1.00
  V5                   ORIFICE     0.039     0  05:12                      1.00
  V6                   ORIFICE     0.175     0  05:15                      1.00
  
  
  ***************************
  Flow Classification Summary
  ***************************
  
  -------------------------------------------------------------------------------------
                      Adjusted    ---------- Fraction of Time in Flow Class ---------- 
                       /Actual         Up    Down  Sub   Sup   Up    Down  Norm  Inlet 
  Conduit               Length    Dry  Dry   Dry   Crit  Crit  Crit  Crit  Ltd   Ctrl  
  -------------------------------------------------------------------------------------
  C1                      1.00   0.00  0.00  0.00  0.30  0.70  0.00  0.00  0.93  0.00
  C10                     1.00   0.00  0.00  0.00  0.96  0.04  0.00  0.00  0.97  0.00
  C11                     1.00   0.00  0.00  0.00  0.64  0.36  0.00  0.00  1.00  0.00
  C12                     1.00   0.00  0.00  0.00  0.85  0.15  0.00  0.00  1.00  0.00
  C13                     1.00   0.00  0.00  0.00  0.86  0.14  0.00  0.00  0.60  0.00
  C14                     1.00   0.01  0.00  0.00  0.01  0.98  0.00  0.00  0.49  0.00
  C15                     1.00   0.04  0.00  0.00  0.00  0.95  0.00  0.00  0.00  0.00
  C16                     1.00   0.00  0.04  0.00  0.13  0.83  0.00  0.00  0.14  0.00
  C17                     1.00   0.00  0.00  0.00  0.24  0.76  0.00  0.00  0.97  0.00
  C18                     1.00   0.00  0.00  0.00  0.88  0.12  0.00  0.00  0.97  0.00
  C19                     1.00   0.00  0.00  0.00  0.98  0.02  0.00  0.00  1.00  0.00
  C2                      1.00   0.00  0.00  0.00  0.59  0.41  0.00  0.00  0.99  0.00
  C20                     1.00   0.00  0.00  0.00  0.23  0.77  0.00  0.00  0.98  0.00
  C21                     1.00   0.00  0.00  0.00  0.01  0.99  0.00  0.00  0.00  0.00
  C22                     1.00   0.00  0.00  0.00  0.74  0.26  0.00  0.00  1.00  0.00
  C23                     1.00   0.00  0.00  0.00  0.88  0.12  0.00  0.00  0.94  0.00
  C3                      1.00   0.00  0.01  0.00  0.07  0.92  0.00  0.00  0.63  0.00
  C4                      1.00   0.00  0.00  0.00  0.95  0.05  0.00  0.00  0.98  0.00
  C5                      1.00   0.00  0.00  0.00  0.77  0.23  0.00  0.00  0.92  0.00
  C6                      1.00   0.00  0.00  0.00  0.14  0.86  0.00  0.00  0.00  0.00
  C7                      1.00   0.00  0.00  0.00  0.94  0.06  0.00  0.00  0.96  0.00
  C8                      1.00   0.00  0.00  0.00  0.17  0.83  0.00  0.00  0.00  0.00
  C9                      1.00   0.00  0.00  0.00  1.00  0.00  0.00  0.00  1.00  0.00
  
  
  *************************
  Conduit Surcharge Summary
  *************************
  
  ----------------------------------------------------------------------------
                                                           Hours        Hours 
                         --------- Hours Full --------   Above Full   Capacity
  Conduit                Both Ends  Upstream  Dnstream   Normal Flow   Limited
  ----------------------------------------------------------------------------
  C10                         0.01      0.01      3.12      0.01         0.01
  C13                         0.01      0.01      3.06      0.01         0.01
  C15                         0.01      0.32      0.01      0.45         0.01
  C18                         0.01      0.01      2.82      0.01         0.01
  C21                         0.01      0.54      0.01      0.51         0.01
  C23                         0.01      0.01      4.70      0.01         0.01
  C4                          0.01      0.01      4.69      0.01         0.01
  C5                          0.44      0.44      0.59      0.50         0.39
  C6                          0.01      0.37      0.01      0.12         0.01
  C7                          0.01      0.01      3.05      0.01         0.01
  C8                          0.01      0.60      0.01      0.58         0.01
  

  Analysis begun on:  Sun Jul 17 21:55:29 2022
  Analysis ended on:  Sun Jul 17 21:55:30 2022
  Total elapsed time: 00:00:01