
  EPA STORM WATER MANAGEMENT MODEL - VERSION 5.1 (Build 5.3.0.dev0)
  --------------------------------------------------------------

  
  *********************************************************
  NOTE: The summary statistics displayed in this report are
  based on results found at every computational time step,  
  not just on results from each reporting time step.
  *********************************************************
  
  ****************
  Analysis Options
  ****************
  Flow Units ............... CMS
  Process Models:
    Rainfall/Runoff ........ YES
    RDII ................... NO
    Snowmelt ............... NO
    Groundwater ............ NO
    Flow Routing ........... YES
    Ponding Allowed ........ NO
    Water Quality .......... NO
  Infiltration Method ...... HORTON
  Flow Routing Method ...... DYNWAVE
  Surcharge Method ......... EXTRAN
  Starting Date ............ 07/10/2008 13:25:00
  Ending Date .............. 07/10/2008 23:20:00
  Antecedent Dry Days ...... 0.0
  Report Time Step ......... 00:05:00
  Wet Time Step ............ 00:05:00
  Dry Time Step ............ 01:00:00
  Routing Time Step ........ 30.00 sec
  Variable Time Step ....... YES
  Maximum Trials ........... 8
  Number of Threads ........ 1
  Head Tolerance ........... 0.001500 m
  
  
  **************************        Volume         Depth
  Runoff Quantity Continuity     hectare-m            mm
  **************************     ---------       -------
  Total Precipitation ......         0.909         5.043
  Evaporation Loss .........         0.000         0.000
  Infiltration Loss ........         0.000         0.000
  Surface Runoff ...........         0.878         4.871
  Final Storage ............         0.034         0.187
  Continuity Error (%) .....        -0.319
  
  
  **************************        Volume        Volume
  Flow Routing Continuity        hectare-m      10^6 ltr
  **************************     ---------     ---------
  Dry Weather Inflow .......         0.322         3.216
  Wet Weather Inflow .......         0.877         8.770
  Groundwater Inflow .......         0.000         0.000
  RDII Inflow ..............         0.000         0.000
  External Inflow ..........         0.000         0.000
  External Outflow .........         0.582         5.815
  Flooding Loss ............         0.000         0.000
  Evaporation Loss .........         0.000         0.000
  Exfiltration Loss ........         0.000         0.000
  Initial Stored Volume ....         0.000         0.000
  Final Stored Volume ......         0.514         5.143
  Continuity Error (%) .....         8.574
  
  
  *************************
  Highest Continuity Errors
  *************************
  Node T2 (32.81%)
  Node T4 (21.88%)
  Node T5 (21.44%)
  Node T3 (19.44%)
  Node T6 (9.73%)
  
  
  ***************************
  Time-Step Critical Elements
  ***************************
  Link C15 (27.15%)
  Link C21 (3.08%)
  
  
  ********************************
  Highest Flow Instability Indexes
  ********************************
  Link V3 (3)
  Link C23 (3)
  Link C11 (3)
  Link C3 (3)
  Link V2 (3)
  
  
  *************************
  Routing Time Step Summary
  *************************
  Minimum Time Step           :     0.00 sec
  Average Time Step           :    28.10 sec
  Maximum Time Step           :    30.00 sec
  Percent in Steady State     :     4.20
  Average Iterations per Step :     2.04
  Percent Not Converging      :     0.00
  
  
  ***************************
  Subcatchment Runoff Summary
  ***************************
  
  ------------------------------------------------------------------------------------------------------------------------------
                            Total      Total      Total      Total     Imperv       Perv      Total       Total     Peak  Runoff
                           Precip      Runon       Evap      Infil     Runoff     Runoff     Runoff      Runoff   Runoff   Coeff
  Subcatchment                 mm         mm         mm         mm         mm         mm         mm    10^6 ltr      CMS
  ------------------------------------------------------------------------------------------------------------------------------
  SC01                       5.59       0.00       0.00       0.00       5.48       0.00       5.48        1.81     0.37   0.981
  SC010                      5.59       0.00       0.00       0.00       5.43       0.00       5.43        0.64     0.11   0.971
  SC02                       6.46       0.00       0.00       0.00       6.34       0.00       6.34        1.44     0.30   0.981
  SC03                       4.09       0.00       0.00       0.00       4.03       0.00       4.03        0.72     0.14   0.984
  SC04                       6.46       0.00       0.00       0.00       6.17       0.00       6.17        0.43     0.08   0.955
  SC05                       5.59       0.00       0.00       0.00       5.47       0.00       5.47        0.85     0.16   0.978
  SC06                       4.08       0.00       0.00       0.00       3.74       0.00       3.74        1.22     0.18   0.918
  SC07                       6.46       0.00       0.00       0.00       6.17       0.00       6.17        0.29     0.05   0.955
  SC08                       4.09       0.00       0.00       0.00       3.95       0.00       3.95        1.11     0.18   0.965
  SC09                       4.08       0.00       0.00       0.00       3.89       0.00       3.89        0.27     0.04   0.952
  
  
  ******************
  Node Depth Summary
  ******************
  
  ---------------------------------------------------------------------------------
                                 Average  Maximum  Maximum  Time of Max    Reported
                                   Depth    Depth      HGL   Occurrence   Max Depth
  Node                 Type       Meters   Meters   Meters  days hr:min      Meters
  ---------------------------------------------------------------------------------
  CSO10                JUNCTION     0.11     0.28    30.28     0  06:00        0.28
  CSO7                 JUNCTION     0.09     0.22    34.22     0  06:26        0.21
  CSO8                 JUNCTION     0.10     0.26    32.26     0  06:35        0.25
  CSO9                 JUNCTION     0.08     0.19    40.19     0  06:21        0.19
  J1                   JUNCTION     0.06     0.14    34.14     0  05:51        0.14
  J10                  JUNCTION     0.08     0.17    29.17     0  06:37        0.17
  J11                  JUNCTION     0.08     0.18    31.18     0  06:37        0.18
  J12                  JUNCTION     0.12     0.20    26.20     0  06:38        0.20
  J13                  JUNCTION     0.06     0.15    29.15     0  06:26        0.15
  J14                  JUNCTION     0.10     0.17    20.17     0  08:13        0.17
  J15                  JUNCTION     0.15     0.26    15.26     0  05:57        0.26
  J16                  JUNCTION     0.06     0.15    30.15     0  05:50        0.15
  J17                  JUNCTION     0.05     0.12    20.12     0  07:57        0.12
  J18                  JUNCTION     0.05     0.12    29.12     0  06:01        0.12
  J19                  JUNCTION     0.13     0.17     8.17     0  06:57        0.17
  J2                   JUNCTION     0.06     0.07    25.07     0  07:16        0.07
  J3                   JUNCTION     0.09     0.14    18.14     0  08:24        0.14
  J4                   JUNCTION     0.11     0.25    33.25     0  06:29        0.25
  J5                   JUNCTION     0.06     0.12    32.12     0  06:27        0.12
  J6                   JUNCTION     0.05     0.10    25.10     0  08:05        0.10
  J7                   JUNCTION     0.07     0.14    39.14     0  06:27        0.14
  J8                   JUNCTION     0.09     0.17    36.17     0  06:27        0.17
  J9                   JUNCTION     0.09     0.14    29.14     0  07:09        0.14
  Out_to_WWTP          OUTFALL      0.13     0.17     6.17     0  06:57        0.17
  T1                   STORAGE      2.33     4.96    14.96     0  06:57        4.96
  T2                   STORAGE      1.53     3.25    24.25     0  08:48        3.25
  T3                   STORAGE      1.51     3.02    25.02     0  08:10        3.02
  T4                   STORAGE      1.39     3.18    30.18     0  07:57        3.18
  T5                   STORAGE      1.77     3.51    30.51     0  07:14        3.51
  T6                   STORAGE      0.96     2.35    33.35     0  07:06        2.35
  
  
  *******************
  Node Inflow Summary
  *******************
  
  -------------------------------------------------------------------------------------------------
                                  Maximum  Maximum                  Lateral       Total        Flow
                                  Lateral    Total  Time of Max      Inflow      Inflow     Balance
                                   Inflow   Inflow   Occurrence      Volume      Volume       Error
  Node                 Type           CMS      CMS  days hr:min    10^6 ltr    10^6 ltr     Percent
  -------------------------------------------------------------------------------------------------
  CSO10                JUNCTION     0.112    0.112     0  06:00       0.753       0.754      -0.005
  CSO7                 JUNCTION     0.061    0.061     0  06:25       0.534       0.535       0.039
  CSO8                 JUNCTION     0.180    0.180     0  06:35        1.28        1.28      -0.004
  CSO9                 JUNCTION     0.050    0.050     0  06:20       0.431       0.431       0.021
  J1                   JUNCTION     0.180    0.180     0  05:50        1.32        1.32      -0.123
  J10                  JUNCTION     0.148    0.307     0  06:35        1.04        2.32      -0.164
  J11                  JUNCTION     0.000    0.179     0  06:35           0        1.28      -0.047
  J12                  JUNCTION     0.000    0.385     0  06:35           0        4.37      -0.244
  J13                  JUNCTION     0.314    0.314     0  06:25        1.83        1.83      -0.270
  J14                  JUNCTION     0.000    0.147     0  08:10           0        2.17       0.418
  J15                  JUNCTION     0.000    0.608     0  05:51           0        7.04       1.129
  J16                  JUNCTION     0.383    0.383     0  05:50        2.27        2.27      -0.123
  J17                  JUNCTION     0.000    0.112     0  07:55           0       0.614       1.635
  J18                  JUNCTION     0.000    0.112     0  06:00           0       0.754       0.004
  J19                  JUNCTION     0.000    0.269     0  06:57           0        5.83       0.194
  J2                   JUNCTION     0.000    0.033     0  07:14           0       0.761       0.589
  J3                   JUNCTION     0.000    0.203     0  08:14           0        3.46       1.525
  J4                   JUNCTION     0.000    0.060     0  06:26           0       0.534       0.280
  J5                   JUNCTION     0.080    0.134     0  06:26       0.531        1.06       0.003
  J6                   JUNCTION     0.000    0.063     0  08:03           0       0.544       0.204
  J7                   JUNCTION     0.000    0.050     0  06:22           0       0.431       0.310
  J8                   JUNCTION     0.205    0.254     0  06:25           2        2.43      -0.073
  J9                   JUNCTION     0.000    0.120     0  07:07           0        2.04      -0.135
  Out_to_WWTP          OUTFALL      0.000    0.269     0  06:57           0        5.82       0.000
  T1                   STORAGE      0.000    0.579     0  05:57           0        6.96       9.314
  T2                   STORAGE      0.000    0.308     0  06:26           0        1.84      48.838
  T3                   STORAGE      0.000    0.363     0  06:38           0        4.38      24.137
  T4                   STORAGE      0.000    0.133     0  06:27           0        1.06      28.005
  T5                   STORAGE      0.000    0.179     0  05:51           0        1.32      27.285
  T6                   STORAGE      0.000    0.254     0  06:27           0        2.43      10.777
  
  
  **********************
  Node Surcharge Summary
  **********************
  
  No nodes were surcharged.
  
  
  *********************
  Node Flooding Summary
  *********************
  
  No nodes were flooded.
  
  
  **********************
  Storage Volume Summary
  **********************
  
  --------------------------------------------------------------------------------------------------
                         Average     Avg  Evap Exfil       Maximum     Max    Time of Max    Maximum
                          Volume    Pcnt  Pcnt  Pcnt        Volume    Pcnt     Occurrence    Outflow
  Storage Unit           1000 m3    Full  Loss  Loss       1000 m3    Full    days hr:min        CMS
  --------------------------------------------------------------------------------------------------
  T1                       0.326      47     0     0         0.694      99       0  06:57      0.269
  T2                       0.306      31     0     0         0.651      65       0  08:48      0.112
  T3                       0.787      30     0     0         1.571      60       0  08:10      0.147
  T4                       0.139      28     0     0         0.318      64       0  07:57      0.063
  T5                       0.177      35     0     0         0.351      70       0  07:14      0.033
  T6                       0.116      19     0     0         0.282      47       0  07:06      0.120
  
  
  ***********************
  Outfall Loading Summary
  ***********************
  
  -----------------------------------------------------------
                         Flow       Avg       Max       Total
                         Freq      Flow      Flow      Volume
  Outfall Node           Pcnt       CMS       CMS    10^6 ltr
  -----------------------------------------------------------
  Out_to_WWTP           99.29     0.165     0.269       5.815
  -----------------------------------------------------------
  System                99.29     0.165     0.269       5.815
  
  
  ********************
  Link Flow Summary
  ********************
  
  -----------------------------------------------------------------------------
                                 Maximum  Time of Max   Maximum    Max/    Max/
                                  |Flow|   Occurrence   |Veloc|    Full    Full
  Link                 Type          CMS  days hr:min     m/sec    Flow   Depth
  -----------------------------------------------------------------------------
  C1                   CONDUIT     0.033     0  07:16      1.05    0.01    0.11
  C10                  CONDUIT     0.254     0  06:27      1.81    0.03    0.56
  C11                  CONDUIT     0.201     0  08:24      1.88    0.01    0.09
  C12                  CONDUIT     0.120     0  07:09      1.31    0.01    0.08
  C13                  CONDUIT     0.363     0  06:38      1.62    0.02    0.55
  C14                  CONDUIT     0.269     0  06:57      2.08    0.01    0.09
  C15                  CONDUIT     0.179     0  06:35      2.35    0.57    0.48
  C16                  CONDUIT     0.170     0  06:37      1.27    0.02    0.09
  C17                  CONDUIT     0.300     0  06:37      2.14    0.01    0.09
  C18                  CONDUIT     0.308     0  06:26      3.17    0.01    0.54
  C19                  CONDUIT     0.091     0  08:03      1.27    0.03    0.15
  C2                   CONDUIT     0.048     0  08:05      1.39    0.05    0.18
  C20                  CONDUIT     0.380     0  05:51      3.22    0.01    0.10
  C21                  CONDUIT     0.112     0  06:00      1.66    0.64    0.46
  C22                  CONDUIT     0.111     0  06:01      1.26    0.05    0.24
  C23                  CONDUIT     0.579     0  05:57      1.35    0.06    0.59
  C3                   CONDUIT     0.149     0  08:13      2.08    0.06    0.15
  C4                   CONDUIT     0.179     0  05:51      3.10    0.04    0.57
  C5                   CONDUIT     0.060     0  06:26      1.34    1.03    0.89
  C6                   CONDUIT     0.057     0  06:29      1.26    0.91    0.62
  C7                   CONDUIT     0.133     0  06:27      1.57    0.03    0.56
  C8                   CONDUIT     0.050     0  06:22      1.21    0.63    0.52
  C9                   CONDUIT     0.049     0  06:27      0.97    0.17    0.31
  V1                   ORIFICE     0.269     0  06:57                      1.00
  V2                   ORIFICE     0.112     0  07:55                      1.00
  V3                   ORIFICE     0.147     0  08:10                      1.00
  V4                   ORIFICE     0.063     0  08:03                      1.00
  V5                   ORIFICE     0.033     0  07:14                      1.00
  V6                   ORIFICE     0.120     0  07:07                      1.00
  
  
  ***************************
  Flow Classification Summary
  ***************************
  
  -------------------------------------------------------------------------------------
                      Adjusted    ---------- Fraction of Time in Flow Class ---------- 
                       /Actual         Up    Down  Sub   Sup   Up    Down  Norm  Inlet 
  Conduit               Length    Dry  Dry   Dry   Crit  Crit  Crit  Crit  Ltd   Ctrl  
  -------------------------------------------------------------------------------------
  C1                      1.00   0.00  0.00  0.00  0.42  0.58  0.00  0.00  0.97  0.00
  C10                     1.00   0.00  0.00  0.00  0.97  0.03  0.00  0.00  0.98  0.00
  C11                     1.00   0.00  0.00  0.00  0.24  0.76  0.00  0.00  1.00  0.00
  C12                     1.00   0.00  0.00  0.00  0.42  0.57  0.00  0.00  0.85  0.00
  C13                     1.00   0.00  0.00  0.00  0.91  0.09  0.00  0.00  0.93  0.00
  C14                     1.00   0.01  0.00  0.00  0.01  0.99  0.00  0.00  0.50  0.00
  C15                     1.00   0.00  0.00  0.00  0.00  1.00  0.00  0.00  0.02  0.00
  C16                     1.00   0.00  0.00  0.00  0.51  0.49  0.00  0.00  0.39  0.00
  C17                     1.00   0.00  0.00  0.00  0.36  0.64  0.00  0.00  0.98  0.00
  C18                     1.00   0.00  0.00  0.00  0.96  0.04  0.00  0.00  0.98  0.00
  C19                     1.00   0.00  0.00  0.00  0.91  0.09  0.00  0.00  1.00  0.00
  C2                      1.00   0.00  0.00  0.00  0.64  0.35  0.00  0.00  0.97  0.00
  C20                     1.00   0.00  0.00  0.00  0.60  0.40  0.00  0.00  0.98  0.00
  C21                     1.00   0.00  0.00  0.00  0.00  1.00  0.00  0.00  0.00  0.00
  C22                     1.00   0.00  0.00  0.00  0.90  0.10  0.00  0.00  1.00  0.00
  C23                     1.00   0.00  0.00  0.00  0.93  0.07  0.00  0.00  0.96  0.00
  C3                      1.00   0.00  0.00  0.00  0.04  0.96  0.00  0.00  0.44  0.00
  C4                      1.00   0.00  0.00  0.00  0.97  0.03  0.00  0.00  0.99  0.00
  C5                      1.00   0.00  0.00  0.00  0.87  0.13  0.00  0.00  0.99  0.00
  C6                      1.00   0.00  0.00  0.00  0.01  0.99  0.00  0.00  0.00  0.00
  C7                      1.00   0.00  0.00  0.00  0.96  0.04  0.00  0.00  0.98  0.00
  C8                      1.00   0.00  0.00  0.00  0.06  0.94  0.00  0.00  0.00  0.00
  C9                      1.00   0.00  0.00  0.00  1.00  0.00  0.00  0.00  1.00  0.00
  
  
  *************************
  Conduit Surcharge Summary
  *************************
  
  ----------------------------------------------------------------------------
                                                           Hours        Hours 
                         --------- Hours Full --------   Above Full   Capacity
  Conduit                Both Ends  Upstream  Dnstream   Normal Flow   Limited
  ----------------------------------------------------------------------------
  C10                         0.01      0.01      2.47      0.01         0.01
  C13                         0.01      0.01      3.34      0.01         0.01
  C18                         0.01      0.01      3.60      0.01         0.01
  C23                         0.01      0.01      6.79      0.01         0.01
  C4                          0.01      0.01      6.96      0.01         0.01
  C5                          0.01      0.01      0.01      0.05         0.01
  C7                          0.01      0.01      3.87      0.01         0.01
  

  Analysis begun on:  Sun Jul 17 20:51:18 2022
  Analysis ended on:  Sun Jul 17 20:51:18 2022
  Total elapsed time: < 1 sec