
  EPA STORM WATER MANAGEMENT MODEL - VERSION 5.1 (Build 5.3.0.dev0)
  --------------------------------------------------------------

  
  *********************************************************
  NOTE: The summary statistics displayed in this report are
  based on results found at every computational time step,  
  not just on results from each reporting time step.
  *********************************************************
  
  ****************
  Analysis Options
  ****************
  Flow Units ............... CMS
  Process Models:
    Rainfall/Runoff ........ YES
    RDII ................... NO
    Snowmelt ............... NO
    Groundwater ............ NO
    Flow Routing ........... YES
    Ponding Allowed ........ NO
    Water Quality .......... NO
  Infiltration Method ...... HORTON
  Flow Routing Method ...... DYNWAVE
  Surcharge Method ......... EXTRAN
  Starting Date ............ 02/28/2007 12:15:00
  Ending Date .............. 03/01/2007 05:15:00
  Antecedent Dry Days ...... 0.0
  Report Time Step ......... 00:05:00
  Wet Time Step ............ 00:05:00
  Dry Time Step ............ 01:00:00
  Routing Time Step ........ 30.00 sec
  Variable Time Step ....... YES
  Maximum Trials ........... 8
  Number of Threads ........ 1
  Head Tolerance ........... 0.001500 m
  
  
  **************************        Volume         Depth
  Runoff Quantity Continuity     hectare-m            mm
  **************************     ---------       -------
  Total Precipitation ......         1.583         8.783
  Evaporation Loss .........         0.000         0.000
  Infiltration Loss ........         0.000         0.000
  Surface Runoff ...........         1.567         8.694
  Final Storage ............         0.019         0.104
  Continuity Error (%) .....        -0.177
  
  
  **************************        Volume        Volume
  Flow Routing Continuity        hectare-m      10^6 ltr
  **************************     ---------     ---------
  Dry Weather Inflow .......         0.448         4.482
  Wet Weather Inflow .......         1.567        15.668
  Groundwater Inflow .......         0.000         0.000
  RDII Inflow ..............         0.000         0.000
  External Inflow ..........         0.000         0.000
  External Outflow .........         1.139        11.390
  Flooding Loss ............         0.183         1.835
  Evaporation Loss .........         0.000         0.000
  Exfiltration Loss ........         0.000         0.000
  Initial Stored Volume ....         0.000         0.000
  Final Stored Volume ......         0.578         5.780
  Continuity Error (%) .....         5.687
  
  
  *************************
  Highest Continuity Errors
  *************************
  Node T2 (27.60%)
  Node T3 (16.69%)
  Node T6 (12.54%)
  Node T5 (6.43%)
  Node T4 (5.44%)
  
  
  ***************************
  Time-Step Critical Elements
  ***************************
  Link C15 (30.83%)
  Link C21 (2.42%)
  
  
  ********************************
  Highest Flow Instability Indexes
  ********************************
  Link C13 (9)
  Link C19 (2)
  Link V6 (2)
  Link C12 (2)
  Link V2 (2)
  
  
  *************************
  Routing Time Step Summary
  *************************
  Minimum Time Step           :     0.11 sec
  Average Time Step           :    27.88 sec
  Maximum Time Step           :    30.00 sec
  Percent in Steady State     :     2.55
  Average Iterations per Step :     2.02
  Percent Not Converging      :     0.00
  
  
  ***************************
  Subcatchment Runoff Summary
  ***************************
  
  ------------------------------------------------------------------------------------------------------------------------------
                            Total      Total      Total      Total     Imperv       Perv      Total       Total     Peak  Runoff
                           Precip      Runon       Evap      Infil     Runoff     Runoff     Runoff      Runoff   Runoff   Coeff
  Subcatchment                 mm         mm         mm         mm         mm         mm         mm    10^6 ltr      CMS
  ------------------------------------------------------------------------------------------------------------------------------
  SC01                      10.33       0.00       0.00       0.00      10.28       0.00      10.28        3.39     0.48   0.995
  SC010                     10.33       0.00       0.00       0.00      10.26       0.00      10.26        1.21     0.15   0.993
  SC02                       8.34       0.00       0.00       0.00       8.28       0.00       8.28        1.88     0.30   0.993
  SC03                       7.61       0.00       0.00       0.00       7.56       0.00       7.56        1.36     0.23   0.993
  SC04                       8.34       0.00       0.00       0.00       8.22       0.00       8.22        0.57     0.07   0.986
  SC05                      10.33       0.00       0.00       0.00      10.27       0.00      10.27        1.60     0.22   0.995
  SC06                       8.17       0.00       0.00       0.00       8.00       0.00       8.00        2.60     0.26   0.979
  SC07                       8.34       0.00       0.00       0.00       8.22       0.00       8.22        0.39     0.05   0.986
  SC08                       7.61       0.00       0.00       0.00       7.52       0.00       7.52        2.10     0.29   0.988
  SC09                       8.17       0.00       0.00       0.00       8.05       0.00       8.05        0.56     0.07   0.986
  
  
  ******************
  Node Depth Summary
  ******************
  
  ---------------------------------------------------------------------------------
                                 Average  Maximum  Maximum  Time of Max    Reported
                                   Depth    Depth      HGL   Occurrence   Max Depth
  Node                 Type       Meters   Meters   Meters  days hr:min      Meters
  ---------------------------------------------------------------------------------
  CSO10                JUNCTION     0.10     0.36    30.36     0  02:55        0.36
  CSO7                 JUNCTION     0.08     0.20    34.20     0  03:00        0.20
  CSO8                 JUNCTION     0.10     0.37    32.37     0  02:50        0.37
  CSO9                 JUNCTION     0.09     0.27    40.27     0  02:55        0.27
  J1                   JUNCTION     0.06     0.16    34.16     0  02:55        0.16
  J10                  JUNCTION     0.08     0.22    29.22     0  02:50        0.22
  J11                  JUNCTION     0.08     0.23    31.23     0  02:51        0.23
  J12                  JUNCTION     0.32     0.61    26.61     0  09:44        0.61
  J13                  JUNCTION     0.05     0.15    29.15     0  02:56        0.15
  J14                  JUNCTION     0.10     0.18    20.18     0  07:37        0.18
  J15                  JUNCTION     0.16     0.29    15.29     0  02:56        0.29
  J16                  JUNCTION     0.06     0.17    30.17     0  02:55        0.17
  J17                  JUNCTION     0.05     0.14    20.14     0  10:45        0.14
  J18                  JUNCTION     0.05     0.14    29.14     0  02:56        0.14
  J19                  JUNCTION     0.14     0.17     8.17     0  06:24        0.17
  J2                   JUNCTION     0.07     0.08    25.08     0  07:22        0.08
  J3                   JUNCTION     0.10     0.16    18.16     0  06:55        0.16
  J4                   JUNCTION     0.09     0.24    33.24     0  03:01        0.24
  J5                   JUNCTION     0.05     0.12    32.12     0  03:00        0.12
  J6                   JUNCTION     0.06     0.11    25.11     0  05:10        0.11
  J7                   JUNCTION     0.07     0.17    39.17     0  02:57        0.17
  J8                   JUNCTION     0.09     0.20    36.20     0  02:56        0.19
  J9                   JUNCTION     0.09     0.16    29.16     0  06:25        0.16
  Out_to_WWTP          OUTFALL      0.14     0.17     6.17     0  04:53        0.17
  T1                   STORAGE      2.85     5.00    15.00     0  03:51        5.00
  T2                   STORAGE      2.78     3.83    24.83     0  09:45        3.83
  T3                   STORAGE      3.22     4.61    26.61     0  09:48        4.61
  T4                   STORAGE      2.07     3.32    30.32     0  08:34        3.32
  T5                   STORAGE      3.01     5.00    32.00     0  06:31        5.00
  T6                   STORAGE      3.20     4.60    35.60     0  10:36        4.60
  
  
  *******************
  Node Inflow Summary
  *******************
  
  -------------------------------------------------------------------------------------------------
                                  Maximum  Maximum                  Lateral       Total        Flow
                                  Lateral    Total  Time of Max      Inflow      Inflow     Balance
                                   Inflow   Inflow   Occurrence      Volume      Volume       Error
  Node                 Type           CMS      CMS  days hr:min    10^6 ltr    10^6 ltr     Percent
  -------------------------------------------------------------------------------------------------
  CSO10                JUNCTION     0.157    0.157     0  02:55        1.37        1.37      -0.125
  CSO7                 JUNCTION     0.057    0.057     0  03:00       0.729       0.729       0.104
  CSO8                 JUNCTION     0.303    0.303     0  02:50        2.32        2.32       0.017
  CSO9                 JUNCTION     0.077    0.077     0  02:55       0.784       0.784       0.103
  J1                   JUNCTION     0.236    0.236     0  02:55        2.26        2.26      -0.183
  J10                  JUNCTION     0.243    0.528     0  02:50        1.81        4.13       0.016
  J11                  JUNCTION     0.000    0.302     0  02:50           0        2.32       0.169
  J12                  JUNCTION     0.000    0.579     0  02:50           0        7.75       3.914
  J13                  JUNCTION     0.317    0.317     0  02:55        2.43        2.43      -0.042
  J14                  JUNCTION     0.000    0.169     0  07:50           0        3.82       0.113
  J15                  JUNCTION     0.000    0.778     0  02:50           0        13.3       0.129
  J16                  JUNCTION     0.493    0.493     0  02:55        4.04        4.04      -0.266
  J17                  JUNCTION     0.000    0.122     0  10:40           0         1.1      -0.178
  J18                  JUNCTION     0.000    0.156     0  02:55           0        1.37      -0.142
  J19                  JUNCTION     0.000    0.271     0  03:51           0        11.4       0.061
  J2                   JUNCTION     0.000    0.039     0  06:35           0        1.77       0.202
  J3                   JUNCTION     0.000    0.252     0  06:55           0        6.82       0.529
  J4                   JUNCTION     0.000    0.057     0  03:00           0       0.728       0.442
  J5                   JUNCTION     0.075    0.130     0  03:00       0.716        1.44       0.111
  J6                   JUNCTION     0.000    0.061     0  06:15           0        1.24       0.685
  J7                   JUNCTION     0.000    0.076     0  02:55           0       0.783       0.407
  J8                   JUNCTION     0.284    0.356     0  02:55         3.7        4.48       0.079
  J9                   JUNCTION     0.000    0.165     0  06:20           0        3.55       0.702
  Out_to_WWTP          OUTFALL      0.000    0.271     0  06:25           0        11.4       0.000
  T1                   STORAGE      0.000    0.745     0  02:56           0        13.3       0.934
  T2                   STORAGE      0.000    0.314     0  02:56           0        2.43      38.118
  T3                   STORAGE      0.000    0.561     0  02:52           0        7.46      20.036
  T4                   STORAGE      0.000    0.129     0  03:00           0        1.44       5.752
  T5                   STORAGE      0.000    0.235     0  02:55           0        2.26       6.877
  T6                   STORAGE      0.000    0.352     0  02:57           0        4.47      14.341
  
  
  **********************
  Node Surcharge Summary
  **********************
  
  No nodes were surcharged.
  
  
  *********************
  Node Flooding Summary
  *********************
  
  Flooding refers to all water that overflows a node, whether it ponds or not.
  --------------------------------------------------------------------------
                                                             Total   Maximum
                                 Maximum   Time of Max       Flood    Ponded
                        Hours       Rate    Occurrence      Volume     Depth
  Node                 Flooded       CMS   days hr:min    10^6 ltr    Meters
  --------------------------------------------------------------------------
  T1                      2.59     0.398      0  06:27       1.628     0.000
  T5                      1.27     0.092      0  06:51       0.207     0.000
  
  
  **********************
  Storage Volume Summary
  **********************
  
  --------------------------------------------------------------------------------------------------
                         Average     Avg  Evap Exfil       Maximum     Max    Time of Max    Maximum
                          Volume    Pcnt  Pcnt  Pcnt        Volume    Pcnt     Occurrence    Outflow
  Storage Unit           1000 m3    Full  Loss  Loss       1000 m3    Full    days hr:min        CMS
  --------------------------------------------------------------------------------------------------
  T1                       0.399      57     0     0         0.700     100       0  03:51      0.271
  T2                       0.556      56     0     0         0.766      77       0  09:45      0.122
  T3                       1.677      64     0     0         2.397      92       0  09:48      0.169
  T4                       0.207      41     0     0         0.332      66       0  08:34      0.061
  T5                       0.301      60     0     0         0.500     100       0  06:31      0.039
  T6                       0.384      64     0     0         0.552      92       0  10:36      0.165
  
  
  ***********************
  Outfall Loading Summary
  ***********************
  
  -----------------------------------------------------------
                         Flow       Avg       Max       Total
                         Freq      Flow      Flow      Volume
  Outfall Node           Pcnt       CMS       CMS    10^6 ltr
  -----------------------------------------------------------
  Out_to_WWTP           99.59     0.189     0.271      11.389
  -----------------------------------------------------------
  System                99.59     0.189     0.271      11.389
  
  
  ********************
  Link Flow Summary
  ********************
  
  -----------------------------------------------------------------------------
                                 Maximum  Time of Max   Maximum    Max/    Max/
                                  |Flow|   Occurrence   |Veloc|    Full    Full
  Link                 Type          CMS  days hr:min     m/sec    Flow   Depth
  -----------------------------------------------------------------------------
  C1                   CONDUIT     0.039     0  07:23      1.07    0.01    0.12
  C10                  CONDUIT     0.352     0  02:57      1.87    0.04    0.56
  C11                  CONDUIT     0.252     0  06:55      1.74    0.01    0.11
  C12                  CONDUIT     0.163     0  07:00      1.51    0.01    0.18
  C13                  CONDUIT     0.561     0  02:52      1.64    0.03    0.65
  C14                  CONDUIT     0.271     0  06:25      2.08    0.02    0.09
  C15                  CONDUIT     0.302     0  02:50      2.65    0.96    0.67
  C16                  CONDUIT     0.297     0  02:51      1.50    0.03    0.11
  C17                  CONDUIT     0.523     0  02:50      2.55    0.03    0.17
  C18                  CONDUIT     0.314     0  02:56      3.12    0.01    0.53
  C19                  CONDUIT     0.119     0  10:45      1.59    0.04    0.20
  C2                   CONDUIT     0.060     0  06:20      1.67    0.07    0.22
  C20                  CONDUIT     0.491     0  02:55      3.15    0.02    0.12
  C21                  CONDUIT     0.156     0  02:55      1.76    0.90    0.57
  C22                  CONDUIT     0.155     0  02:56      1.40    0.07    0.27
  C23                  CONDUIT     0.745     0  02:56      1.38    0.08    0.60
  C3                   CONDUIT     0.170     0  07:38      2.11    0.07    0.16
  C4                   CONDUIT     0.235     0  02:55      3.04    0.06    0.58
  C5                   CONDUIT     0.057     0  03:00      1.38    0.97    0.87
  C6                   CONDUIT     0.056     0  03:01      1.26    0.89    0.60
  C7                   CONDUIT     0.129     0  03:00      1.62    0.03    0.56
  C8                   CONDUIT     0.076     0  02:55      1.32    0.96    0.70
  C9                   CONDUIT     0.075     0  02:57      1.14    0.25    0.37
  V1                   ORIFICE     0.271     0  03:51                      1.00
  V2                   ORIFICE     0.122     0  10:40                      1.00
  V3                   ORIFICE     0.169     0  07:50                      1.00
  V4                   ORIFICE     0.061     0  06:15                      1.00
  V5                   ORIFICE     0.039     0  06:35                      1.00
  V6                   ORIFICE     0.165     0  06:20                      1.00
  
  
  ***************************
  Flow Classification Summary
  ***************************
  
  -------------------------------------------------------------------------------------
                      Adjusted    ---------- Fraction of Time in Flow Class ---------- 
                       /Actual         Up    Down  Sub   Sup   Up    Down  Norm  Inlet 
  Conduit               Length    Dry  Dry   Dry   Crit  Crit  Crit  Crit  Ltd   Ctrl  
  -------------------------------------------------------------------------------------
  C1                      1.00   0.00  0.00  0.00  0.25  0.75  0.00  0.00  0.98  0.00
  C10                     1.00   0.00  0.00  0.00  0.98  0.02  0.00  0.00  0.99  0.00
  C11                     1.00   0.00  0.00  0.00  0.18  0.82  0.00  0.00  1.00  0.00
  C12                     1.00   0.00  0.00  0.00  0.76  0.24  0.00  0.00  0.97  0.00
  C13                     1.00   0.00  0.00  0.00  0.95  0.05  0.00  0.00  0.44  0.00
  C14                     1.00   0.00  0.00  0.00  0.00  0.99  0.00  0.00  0.57  0.00
  C15                     1.00   0.00  0.00  0.00  0.00  1.00  0.00  0.00  0.00  0.00
  C16                     1.00   0.00  0.00  0.00  0.55  0.45  0.00  0.00  0.40  0.00
  C17                     1.00   0.00  0.00  0.00  0.53  0.47  0.00  0.00  0.98  0.00
  C18                     1.00   0.00  0.00  0.00  0.98  0.02  0.00  0.00  0.99  0.00
  C19                     1.00   0.00  0.00  0.00  0.99  0.01  0.00  0.00  1.00  0.00
  C2                      1.00   0.00  0.00  0.00  0.30  0.70  0.00  0.00  0.99  0.00
  C20                     1.00   0.00  0.00  0.00  0.62  0.38  0.00  0.00  0.99  0.00
  C21                     1.00   0.00  0.00  0.00  0.00  1.00  0.00  0.00  0.00  0.00
  C22                     1.00   0.00  0.00  0.00  0.91  0.09  0.00  0.00  1.00  0.00
  C23                     1.00   0.00  0.00  0.00  0.96  0.04  0.00  0.00  0.98  0.00
  C3                      1.00   0.00  0.00  0.00  0.02  0.98  0.00  0.00  0.51  0.00
  C4                      1.00   0.00  0.00  0.00  0.98  0.02  0.00  0.00  0.99  0.00
  C5                      1.00   0.00  0.00  0.00  0.91  0.09  0.00  0.00  0.99  0.00
  C6                      1.00   0.00  0.00  0.00  0.00  1.00  0.00  0.00  0.00  0.00
  C7                      1.00   0.00  0.00  0.00  0.98  0.02  0.00  0.00  0.99  0.00
  C8                      1.00   0.00  0.00  0.00  0.25  0.75  0.00  0.00  0.00  0.00
  C9                      1.00   0.00  0.00  0.00  1.00  0.00  0.00  0.00  1.00  0.00
  
  
  *************************
  Conduit Surcharge Summary
  *************************
  
  ----------------------------------------------------------------------------
                                                           Hours        Hours 
                         --------- Hours Full --------   Above Full   Capacity
  Conduit                Both Ends  Upstream  Dnstream   Normal Flow   Limited
  ----------------------------------------------------------------------------
  C10                         0.01      0.01     13.97      0.01         0.01
  C13                         0.01      0.01     13.22      0.01         0.01
  C18                         0.01      0.01     13.56      0.01         0.01
  C23                         0.01      0.01     11.16      0.01         0.01
  C4                          0.01      0.01     14.30      0.01         0.01
  C7                          0.01      0.01     14.08      0.01         0.01
  

  Analysis begun on:  Sun Jul 17 19:43:41 2022
  Analysis ended on:  Sun Jul 17 19:43:43 2022
  Total elapsed time: 00:00:02