
  EPA STORM WATER MANAGEMENT MODEL - VERSION 5.1 (Build 5.3.0.dev0)
  --------------------------------------------------------------

  
  *********************************************************
  NOTE: The summary statistics displayed in this report are
  based on results found at every computational time step,  
  not just on results from each reporting time step.
  *********************************************************
  
  ****************
  Analysis Options
  ****************
  Flow Units ............... CMS
  Process Models:
    Rainfall/Runoff ........ YES
    RDII ................... NO
    Snowmelt ............... NO
    Groundwater ............ NO
    Flow Routing ........... YES
    Ponding Allowed ........ NO
    Water Quality .......... NO
  Infiltration Method ...... HORTON
  Flow Routing Method ...... DYNWAVE
  Surcharge Method ......... EXTRAN
  Starting Date ............ 08/30/2008 11:05:00
  Ending Date .............. 08/30/2008 21:55:00
  Antecedent Dry Days ...... 0.0
  Report Time Step ......... 00:05:00
  Wet Time Step ............ 00:05:00
  Dry Time Step ............ 01:00:00
  Routing Time Step ........ 30.00 sec
  Variable Time Step ....... YES
  Maximum Trials ........... 8
  Number of Threads ........ 1
  Head Tolerance ........... 0.001500 m
  
  
  **************************        Volume         Depth
  Runoff Quantity Continuity     hectare-m            mm
  **************************     ---------       -------
  Total Precipitation ......         1.032         5.728
  Evaporation Loss .........         0.000         0.000
  Infiltration Loss ........         0.000         0.000
  Surface Runoff ...........         1.003         5.565
  Final Storage ............         0.031         0.171
  Continuity Error (%) .....        -0.145
  
  
  **************************        Volume        Volume
  Flow Routing Continuity        hectare-m      10^6 ltr
  **************************     ---------     ---------
  Dry Weather Inflow .......         0.449         4.486
  Wet Weather Inflow .......         1.003        10.029
  Groundwater Inflow .......         0.000         0.000
  RDII Inflow ..............         0.000         0.000
  External Inflow ..........         0.000         0.000
  External Outflow .........         0.795         7.947
  Flooding Loss ............         0.000         0.000
  Evaporation Loss .........         0.000         0.000
  Exfiltration Loss ........         0.000         0.000
  Initial Stored Volume ....         0.000         0.000
  Final Stored Volume ......         0.537         5.371
  Continuity Error (%) .....         8.247
  
  
  *************************
  Highest Continuity Errors
  *************************
  Node T2 (31.83%)
  Node T3 (16.94%)
  Node T5 (16.21%)
  Node T6 (14.83%)
  Node T4 (9.30%)
  
  
  ***************************
  Time-Step Critical Elements
  ***************************
  Link C15 (31.91%)
  
  
  ********************************
  Highest Flow Instability Indexes
  ********************************
  Link C3 (6)
  Link C12 (5)
  Link C11 (5)
  Link C13 (5)
  Link C23 (4)
  
  
  *************************
  Routing Time Step Summary
  *************************
  Minimum Time Step           :     0.32 sec
  Average Time Step           :    27.76 sec
  Maximum Time Step           :    30.00 sec
  Percent in Steady State     :     3.77
  Average Iterations per Step :     2.04
  Percent Not Converging      :     0.00
  
  
  ***************************
  Subcatchment Runoff Summary
  ***************************
  
  ------------------------------------------------------------------------------------------------------------------------------
                            Total      Total      Total      Total     Imperv       Perv      Total       Total     Peak  Runoff
                           Precip      Runon       Evap      Infil     Runoff     Runoff     Runoff      Runoff   Runoff   Coeff
  Subcatchment                 mm         mm         mm         mm         mm         mm         mm    10^6 ltr      CMS
  ------------------------------------------------------------------------------------------------------------------------------
  SC01                       5.63       0.00       0.00       0.00       5.52       0.00       5.52        1.82     0.30   0.980
  SC010                      5.63       0.00       0.00       0.00       5.48       0.00       5.48        0.64     0.10   0.972
  SC02                       5.83       0.00       0.00       0.00       5.70       0.00       5.70        1.30     0.19   0.978
  SC03                       6.42       0.00       0.00       0.00       6.35       0.00       6.35        1.14     0.16   0.989
  SC04                       5.83       0.00       0.00       0.00       5.55       0.00       5.55        0.38     0.04   0.952
  SC05                       5.63       0.00       0.00       0.00       5.51       0.00       5.51        0.86     0.14   0.978
  SC06                       4.98       0.00       0.00       0.00       4.71       0.00       4.71        1.53     0.17   0.945
  SC07                       5.83       0.00       0.00       0.00       5.55       0.00       5.55        0.26     0.03   0.952
  SC08                       6.42       0.00       0.00       0.00       6.27       0.00       6.27        1.75     0.22   0.976
  SC09                       4.98       0.00       0.00       0.00       4.81       0.00       4.81        0.33     0.04   0.966
  
  
  ******************
  Node Depth Summary
  ******************
  
  ---------------------------------------------------------------------------------
                                 Average  Maximum  Maximum  Time of Max    Reported
                                   Depth    Depth      HGL   Occurrence   Max Depth
  Node                 Type       Meters   Meters   Meters  days hr:min      Meters
  ---------------------------------------------------------------------------------
  CSO10                JUNCTION     0.11     0.27    30.27     0  01:30        0.26
  CSO7                 JUNCTION     0.09     0.16    34.16     0  01:30        0.16
  CSO8                 JUNCTION     0.13     0.30    32.30     0  01:20        0.30
  CSO9                 JUNCTION     0.09     0.19    40.19     0  02:10        0.18
  J1                   JUNCTION     0.07     0.14    34.14     0  01:30        0.14
  J10                  JUNCTION     0.09     0.19    29.19     0  01:22        0.19
  J11                  JUNCTION     0.10     0.21    31.21     0  01:23        0.21
  J12                  JUNCTION     0.13     0.22    26.22     0  01:30        0.22
  J13                  JUNCTION     0.06     0.12    29.12     0  01:30        0.12
  J14                  JUNCTION     0.12     0.18    20.18     0  08:27        0.18
  J15                  JUNCTION     0.16     0.24    15.24     0  01:36        0.24
  J16                  JUNCTION     0.06     0.14    30.14     0  01:30        0.14
  J17                  JUNCTION     0.05     0.13    20.13     0  10:17        0.13
  J18                  JUNCTION     0.05     0.12    29.12     0  01:33        0.12
  J19                  JUNCTION     0.14     0.17     8.17     0  03:56        0.17
  J2                   JUNCTION     0.06     0.07    25.07     0  03:56        0.07
  J3                   JUNCTION     0.11     0.14    18.14     0  03:13        0.14
  J4                   JUNCTION     0.11     0.19    33.19     0  01:35        0.19
  J5                   JUNCTION     0.06     0.10    32.10     0  01:33        0.10
  J6                   JUNCTION     0.06     0.10    25.10     0  03:07        0.10
  J7                   JUNCTION     0.07     0.14    39.14     0  01:36        0.14
  J8                   JUNCTION     0.10     0.16    36.16     0  02:13        0.16
  J9                   JUNCTION     0.09     0.15    29.15     0  04:00        0.15
  Out_to_WWTP          OUTFALL      0.14     0.17     6.17     0  03:56        0.17
  T1                   STORAGE      3.05     4.45    14.45     0  03:55        4.45
  T2                   STORAGE      2.03     3.27    24.27     0  10:09        3.27
  T3                   STORAGE      2.49     3.96    25.96     0  08:35        3.96
  T4                   STORAGE      1.22     1.89    28.89     0  03:00        1.89
  T5                   STORAGE      2.31     2.92    29.92     0  03:52        2.92
  T6                   STORAGE      2.40     3.51    34.51     0  03:50        3.51
  
  
  *******************
  Node Inflow Summary
  *******************
  
  -------------------------------------------------------------------------------------------------
                                  Maximum  Maximum                  Lateral       Total        Flow
                                  Lateral    Total  Time of Max      Inflow      Inflow     Balance
                                   Inflow   Inflow   Occurrence      Volume      Volume       Error
  Node                 Type           CMS      CMS  days hr:min    10^6 ltr    10^6 ltr     Percent
  -------------------------------------------------------------------------------------------------
  CSO10                JUNCTION     0.103    0.103     0  01:30       0.804       0.804       0.060
  CSO7                 JUNCTION     0.043    0.043     0  01:30       0.599       0.599       0.048
  CSO8                 JUNCTION     0.232    0.232     0  01:20        2.01        2.01       0.014
  CSO9                 JUNCTION     0.048    0.048     0  02:10       0.558       0.558       0.059
  J1                   JUNCTION     0.165    0.165     0  01:30        1.51        1.51      -0.043
  J10                  JUNCTION     0.178    0.400     0  01:20        1.59        3.59       0.067
  J11                  JUNCTION     0.000    0.232     0  01:20           0        2.01       0.175
  J12                  JUNCTION     0.000    0.446     0  01:30           0        5.94       0.331
  J13                  JUNCTION     0.208    0.208     0  01:30        1.84        1.84      -0.274
  J14                  JUNCTION     0.000    0.169     0  08:35           0        3.34       0.139
  J15                  JUNCTION     0.000    0.517     0  01:35           0        9.15       0.839
  J16                  JUNCTION     0.329    0.329     0  01:30        2.46        2.46      -0.023
  J17                  JUNCTION     0.000    0.113     0  10:10           0       0.684       2.354
  J18                  JUNCTION     0.000    0.103     0  01:31           0       0.804       0.054
  J19                  JUNCTION     0.000    0.255     0  03:55           0        7.96       0.142
  J2                   JUNCTION     0.000    0.030     0  03:52           0        1.02       0.412
  J3                   JUNCTION     0.000    0.214     0  08:28           0        5.22      -0.112
  J4                   JUNCTION     0.000    0.043     0  01:30           0       0.599       0.415
  J5                   JUNCTION     0.049    0.090     0  01:32        0.53        1.13       0.048
  J6                   JUNCTION     0.000    0.049     0  03:00           0       0.863       0.014
  J7                   JUNCTION     0.000    0.047     0  02:11           0       0.558       0.422
  J8                   JUNCTION     0.204    0.246     0  02:10        2.62        3.17       0.035
  J9                   JUNCTION     0.000    0.146     0  03:50           0        2.35       0.344
  Out_to_WWTP          OUTFALL      0.000    0.255     0  03:56           0        7.95       0.000
  T1                   STORAGE      0.000    0.509     0  01:36           0        9.08       7.015
  T2                   STORAGE      0.000    0.207     0  01:30           0        1.84      46.700
  T3                   STORAGE      0.000    0.440     0  01:30           0        5.92      20.399
  T4                   STORAGE      0.000    0.090     0  01:34           0        1.13      10.256
  T5                   STORAGE      0.000    0.165     0  01:30           0        1.51      19.348
  T6                   STORAGE      0.000    0.244     0  02:13           0        3.17      17.416
  
  
  **********************
  Node Surcharge Summary
  **********************
  
  No nodes were surcharged.
  
  
  *********************
  Node Flooding Summary
  *********************
  
  No nodes were flooded.
  
  
  **********************
  Storage Volume Summary
  **********************
  
  --------------------------------------------------------------------------------------------------
                         Average     Avg  Evap Exfil       Maximum     Max    Time of Max    Maximum
                          Volume    Pcnt  Pcnt  Pcnt        Volume    Pcnt     Occurrence    Outflow
  Storage Unit           1000 m3    Full  Loss  Loss       1000 m3    Full    days hr:min        CMS
  --------------------------------------------------------------------------------------------------
  T1                       0.427      61     0     0         0.624      89       0  03:55      0.255
  T2                       0.406      41     0     0         0.653      65       0  10:09      0.113
  T3                       1.296      50     0     0         2.058      79       0  08:35      0.169
  T4                       0.122      24     0     0         0.189      38       0  03:00      0.049
  T5                       0.231      46     0     0         0.292      58       0  03:52      0.030
  T6                       0.288      48     0     0         0.421      70       0  03:50      0.146
  
  
  ***********************
  Outfall Loading Summary
  ***********************
  
  -----------------------------------------------------------
                         Flow       Avg       Max       Total
                         Freq      Flow      Flow      Volume
  Outfall Node           Pcnt       CMS       CMS    10^6 ltr
  -----------------------------------------------------------
  Out_to_WWTP           99.36     0.200     0.255       7.946
  -----------------------------------------------------------
  System                99.36     0.200     0.255       7.946
  
  
  ********************
  Link Flow Summary
  ********************
  
  -----------------------------------------------------------------------------
                                 Maximum  Time of Max   Maximum    Max/    Max/
                                  |Flow|   Occurrence   |Veloc|    Full    Full
  Link                 Type          CMS  days hr:min     m/sec    Flow   Depth
  -----------------------------------------------------------------------------
  C1                   CONDUIT     0.030     0  03:57      0.98    0.01    0.11
  C10                  CONDUIT     0.244     0  02:13      1.81    0.03    0.55
  C11                  CONDUIT     0.208     0  03:13      1.82    0.01    0.09
  C12                  CONDUIT     0.143     0  03:30      1.41    0.01    0.08
  C13                  CONDUIT     0.440     0  01:30      2.01    0.03    0.54
  C14                  CONDUIT     0.255     0  03:56      2.04    0.01    0.08
  C15                  CONDUIT     0.232     0  01:20      2.50    0.74    0.56
  C16                  CONDUIT     0.230     0  01:23      1.40    0.02    0.10
  C17                  CONDUIT     0.399     0  01:22      2.35    0.02    0.10
  C18                  CONDUIT     0.207     0  01:30      3.17    0.01    0.52
  C19                  CONDUIT     0.111     0  10:17      1.45    0.04    0.17
  C2                   CONDUIT     0.048     0  03:07      1.47    0.05    0.20
  C20                  CONDUIT     0.329     0  01:30      3.22    0.01    0.10
  C21                  CONDUIT     0.103     0  01:31      1.63    0.59    0.43
  C22                  CONDUIT     0.103     0  01:33      1.24    0.05    0.22
  C23                  CONDUIT     0.509     0  01:36      1.35    0.06    0.58
  C3                   CONDUIT     0.171     0  08:28      2.20    0.07    0.16
  C4                   CONDUIT     0.165     0  01:30      3.10    0.04    0.57
  C5                   CONDUIT     0.043     0  01:30      1.34    0.73    0.70
  C6                   CONDUIT     0.042     0  01:35      1.20    0.67    0.50
  C7                   CONDUIT     0.090     0  01:34      1.57    0.02    0.55
  C8                   CONDUIT     0.047     0  02:11      1.21    0.60    0.50
  C9                   CONDUIT     0.047     0  01:36      0.97    0.16    0.30
  V1                   ORIFICE     0.255     0  03:55                      1.00
  V2                   ORIFICE     0.113     0  10:10                      1.00
  V3                   ORIFICE     0.169     0  08:35                      1.00
  V4                   ORIFICE     0.049     0  03:00                      1.00
  V5                   ORIFICE     0.030     0  03:52                      1.00
  V6                   ORIFICE     0.146     0  03:50                      1.00
  
  
  ***************************
  Flow Classification Summary
  ***************************
  
  -------------------------------------------------------------------------------------
                      Adjusted    ---------- Fraction of Time in Flow Class ---------- 
                       /Actual         Up    Down  Sub   Sup   Up    Down  Norm  Inlet 
  Conduit               Length    Dry  Dry   Dry   Crit  Crit  Crit  Crit  Ltd   Ctrl  
  -------------------------------------------------------------------------------------
  C1                      1.00   0.00  0.00  0.00  0.50  0.50  0.00  0.00  0.97  0.00
  C10                     1.00   0.00  0.00  0.00  0.97  0.03  0.00  0.00  0.99  0.00
  C11                     1.00   0.00  0.00  0.00  0.17  0.83  0.00  0.00  1.00  0.00
  C12                     1.00   0.00  0.00  0.00  0.60  0.40  0.00  0.00  0.91  0.00
  C13                     1.00   0.00  0.00  0.00  0.94  0.06  0.00  0.00  0.95  0.00
  C14                     1.00   0.00  0.00  0.00  0.01  0.99  0.00  0.00  0.22  0.00
  C15                     1.00   0.00  0.00  0.00  0.00  1.00  0.00  0.00  0.00  0.00
  C16                     1.00   0.00  0.00  0.00  0.23  0.77  0.00  0.00  0.27  0.00
  C17                     1.00   0.00  0.00  0.00  0.12  0.88  0.00  0.00  0.98  0.00
  C18                     1.00   0.00  0.00  0.00  0.97  0.03  0.00  0.00  0.98  0.00
  C19                     1.00   0.00  0.00  0.00  0.95  0.05  0.00  0.00  1.00  0.00
  C2                      1.00   0.00  0.00  0.00  0.52  0.48  0.00  0.00  0.99  0.00
  C20                     1.00   0.00  0.00  0.00  0.64  0.36  0.00  0.00  0.99  0.00
  C21                     1.00   0.00  0.00  0.00  0.00  1.00  0.00  0.00  0.00  0.00
  C22                     1.00   0.00  0.00  0.00  0.90  0.10  0.00  0.00  1.00  0.00
  C23                     1.00   0.00  0.00  0.00  0.93  0.07  0.00  0.00  0.97  0.00
  C3                      1.00   0.00  0.00  0.00  0.02  0.97  0.00  0.00  0.38  0.00
  C4                      1.00   0.00  0.00  0.00  0.98  0.02  0.00  0.00  0.99  0.00
  C5                      1.00   0.00  0.00  0.00  0.94  0.06  0.00  0.00  0.99  0.00
  C6                      1.00   0.00  0.00  0.00  0.01  0.99  0.00  0.00  0.00  0.00
  C7                      1.00   0.00  0.00  0.00  0.97  0.03  0.00  0.00  0.98  0.00
  C8                      1.00   0.00  0.00  0.00  0.01  0.99  0.00  0.00  0.00  0.00
  C9                      1.00   0.00  0.00  0.00  1.00  0.00  0.00  0.00  1.00  0.00
  
  
  *************************
  Conduit Surcharge Summary
  *************************
  
  ----------------------------------------------------------------------------
                                                           Hours        Hours 
                         --------- Hours Full --------   Above Full   Capacity
  Conduit                Both Ends  Upstream  Dnstream   Normal Flow   Limited
  ----------------------------------------------------------------------------
  C10                         0.01      0.01      9.00      0.01         0.01
  C13                         0.01      0.01      8.56      0.01         0.01
  C18                         0.01      0.01      7.27      0.01         0.01
  C23                         0.01      0.01      9.28      0.01         0.01
  C4                          0.01      0.01      9.39      0.01         0.01
  C7                          0.01      0.01      9.14      0.01         0.01
  

  Analysis begun on:  Sun Jul 17 20:58:05 2022
  Analysis ended on:  Sun Jul 17 20:58:05 2022
  Total elapsed time: < 1 sec