
  EPA STORM WATER MANAGEMENT MODEL - VERSION 5.1 (Build 5.3.0.dev0)
  --------------------------------------------------------------

  
  *********************************************************
  NOTE: The summary statistics displayed in this report are
  based on results found at every computational time step,  
  not just on results from each reporting time step.
  *********************************************************
  
  ****************
  Analysis Options
  ****************
  Flow Units ............... CMS
  Process Models:
    Rainfall/Runoff ........ YES
    RDII ................... NO
    Snowmelt ............... NO
    Groundwater ............ NO
    Flow Routing ........... YES
    Ponding Allowed ........ NO
    Water Quality .......... NO
  Infiltration Method ...... HORTON
  Flow Routing Method ...... DYNWAVE
  Surcharge Method ......... EXTRAN
  Starting Date ............ 01/07/2008 13:55:00
  Ending Date .............. 01/08/2008 00:35:00
  Antecedent Dry Days ...... 0.0
  Report Time Step ......... 00:05:00
  Wet Time Step ............ 00:05:00
  Dry Time Step ............ 01:00:00
  Routing Time Step ........ 30.00 sec
  Variable Time Step ....... YES
  Maximum Trials ........... 8
  Number of Threads ........ 1
  Head Tolerance ........... 0.001500 m
  
  
  **************************        Volume         Depth
  Runoff Quantity Continuity     hectare-m            mm
  **************************     ---------       -------
  Total Precipitation ......         1.626         9.024
  Evaporation Loss .........         0.000         0.000
  Infiltration Loss ........         0.000         0.000
  Surface Runoff ...........         1.605         8.907
  Final Storage ............         0.023         0.125
  Continuity Error (%) .....        -0.090
  
  
  **************************        Volume        Volume
  Flow Routing Continuity        hectare-m      10^6 ltr
  **************************     ---------     ---------
  Dry Weather Inflow .......         0.300         3.004
  Wet Weather Inflow .......         1.605        16.052
  Groundwater Inflow .......         0.000         0.000
  RDII Inflow ..............         0.000         0.000
  External Inflow ..........         0.000         0.000
  External Outflow .........         0.839         8.387
  Flooding Loss ............         0.186         1.858
  Evaporation Loss .........         0.000         0.000
  Exfiltration Loss ........         0.000         0.000
  Initial Stored Volume ....         0.000         0.000
  Final Stored Volume ......         0.690         6.900
  Continuity Error (%) .....        10.031
  
  
  *************************
  Highest Continuity Errors
  *************************
  Node T2 (31.60%)
  Node T3 (16.77%)
  Node T6 (16.48%)
  Node T5 (16.01%)
  Node T4 (13.33%)
  
  
  ***************************
  Time-Step Critical Elements
  ***************************
  Link C15 (59.79%)
  
  
  ********************************
  Highest Flow Instability Indexes
  ********************************
  Link C13 (10)
  Link C23 (3)
  Link V3 (3)
  Link C11 (2)
  Link C20 (2)
  
  
  *************************
  Routing Time Step Summary
  *************************
  Minimum Time Step           :     0.20 sec
  Average Time Step           :    25.22 sec
  Maximum Time Step           :    30.00 sec
  Percent in Steady State     :     1.34
  Average Iterations per Step :     2.02
  Percent Not Converging      :     0.00
  
  
  ***************************
  Subcatchment Runoff Summary
  ***************************
  
  ------------------------------------------------------------------------------------------------------------------------------
                            Total      Total      Total      Total     Imperv       Perv      Total       Total     Peak  Runoff
                           Precip      Runon       Evap      Infil     Runoff     Runoff     Runoff      Runoff   Runoff   Coeff
  Subcatchment                 mm         mm         mm         mm         mm         mm         mm    10^6 ltr      CMS
  ------------------------------------------------------------------------------------------------------------------------------
  SC01                       7.38       0.00       0.00       0.00       7.30       0.00       7.30        2.41     0.19   0.990
  SC010                      7.38       0.00       0.00       0.00       7.28       0.00       7.28        0.86     0.06   0.986
  SC02                      10.40       0.00       0.00       0.00      10.31       0.00      10.31        2.35     0.20   0.992
  SC03                       9.64       0.00       0.00       0.00       9.58       0.00       9.58        1.72     0.16   0.994
  SC04                      10.40       0.00       0.00       0.00      10.22       0.00      10.22        0.71     0.06   0.983
  SC05                       7.38       0.00       0.00       0.00       7.30       0.00       7.30        1.14     0.09   0.989
  SC06                       9.62       0.00       0.00       0.00       9.40       0.00       9.40        3.06     0.20   0.977
  SC07                      10.40       0.00       0.00       0.00      10.22       0.00      10.22        0.49     0.04   0.983
  SC08                       9.64       0.00       0.00       0.00       9.53       0.00       9.53        2.67     0.19   0.989
  SC09                       9.62       0.00       0.00       0.00       9.49       0.00       9.49        0.65     0.05   0.986
  
  
  ******************
  Node Depth Summary
  ******************
  
  ---------------------------------------------------------------------------------
                                 Average  Maximum  Maximum  Time of Max    Reported
                                   Depth    Depth      HGL   Occurrence   Max Depth
  Node                 Type       Meters   Meters   Meters  days hr:min      Meters
  ---------------------------------------------------------------------------------
  CSO10                JUNCTION     0.12     0.20    30.20     0  03:35        0.20
  CSO7                 JUNCTION     0.10     0.17    34.17     0  01:30        0.17
  CSO8                 JUNCTION     0.15     0.28    32.28     0  00:40        0.27
  CSO9                 JUNCTION     0.11     0.20    40.20     0  05:11        0.19
  J1                   JUNCTION     0.07     0.11    34.11     0  00:51        0.11
  J10                  JUNCTION     0.11     0.19    29.19     0  00:43        0.18
  J11                  JUNCTION     0.11     0.19    31.19     0  00:46        0.19
  J12                  JUNCTION     0.52     1.01    27.01     0  05:20        1.01
  J13                  JUNCTION     0.07     0.13    29.13     0  01:16        0.13
  J14                  JUNCTION     0.12     0.19    20.19     0  05:17        0.19
  J15                  JUNCTION     0.18     0.25    15.25     0  04:51        0.25
  J16                  JUNCTION     0.07     0.11    30.11     0  00:51        0.11
  J17                  JUNCTION     0.06     0.14    20.14     0  04:55        0.14
  J18                  JUNCTION     0.06     0.09    29.09     0  00:56        0.09
  J19                  JUNCTION     0.15     0.17     8.17     0  03:58        0.17
  J2                   JUNCTION     0.06     0.07    25.07     0  06:02        0.07
  J3                   JUNCTION     0.12     0.17    18.17     0  05:45        0.17
  J4                   JUNCTION     0.12     0.20    33.20     0  01:32        0.20
  J5                   JUNCTION     0.07     0.11    32.11     0  01:31        0.11
  J6                   JUNCTION     0.07     0.11    25.11     0  05:42        0.11
  J7                   JUNCTION     0.09     0.14    39.14     0  05:16        0.14
  J8                   JUNCTION     0.11     0.17    36.17     0  05:15        0.17
  J9                   JUNCTION     0.11     0.16    29.16     0  05:47        0.16
  Out_to_WWTP          OUTFALL      0.15     0.17     6.17     0  07:21        0.17
  T1                   STORAGE      3.55     5.00    15.00     0  03:57        5.00
  T2                   STORAGE      3.29     4.60    25.60     0  07:09        4.60
  T3                   STORAGE      3.58     5.00    27.00     0  05:18        5.00
  T4                   STORAGE      2.79     3.98    30.98     0  06:23        3.98
  T5                   STORAGE      2.74     4.24    31.24     0  06:00        4.24
  T6                   STORAGE      3.66     5.00    36.00     0  05:16        5.00
  
  
  *******************
  Node Inflow Summary
  *******************
  
  -------------------------------------------------------------------------------------------------
                                  Maximum  Maximum                  Lateral       Total        Flow
                                  Lateral    Total  Time of Max      Inflow      Inflow     Balance
                                   Inflow   Inflow   Occurrence      Volume      Volume       Error
  Node                 Type           CMS      CMS  days hr:min    10^6 ltr    10^6 ltr     Percent
  -------------------------------------------------------------------------------------------------
  CSO10                JUNCTION     0.064    0.064     0  03:35       0.964       0.964       0.012
  CSO7                 JUNCTION     0.046    0.046     0  01:30       0.712       0.712       0.017
  CSO8                 JUNCTION     0.202    0.202     0  00:40        2.82        2.82      -0.012
  CSO9                 JUNCTION     0.052    0.052     0  05:10       0.808       0.808       0.002
  J1                   JUNCTION     0.104    0.104     0  00:50        1.58        1.58      -0.150
  J10                  JUNCTION     0.171    0.361     0  00:41        2.02        4.85      -0.226
  J11                  JUNCTION     0.000    0.202     0  00:41           0        2.82      -0.079
  J12                  JUNCTION     0.000    0.479     0  05:12           0        8.15       5.611
  J13                  JUNCTION     0.216    0.216     0  01:15        2.71        2.71      -0.343
  J14                  JUNCTION     0.000    0.190     0  05:19           0        3.51       0.135
  J15                  JUNCTION     0.000    0.558     0  04:50           0        10.4       0.501
  J16                  JUNCTION     0.209    0.209     0  00:50        2.84        2.84      -0.103
  J17                  JUNCTION     0.000    0.123     0  04:35           0       0.991       0.177
  J18                  JUNCTION     0.000    0.063     0  03:36           0       0.964      -0.117
  J19                  JUNCTION     0.000    0.271     0  03:57           0         8.4       0.108
  J2                   JUNCTION     0.000    0.036     0  06:00           0        1.09       0.394
  J3                   JUNCTION     0.000    0.296     0  05:41           0        5.64       0.446
  J4                   JUNCTION     0.000    0.046     0  01:30           0       0.712       0.103
  J5                   JUNCTION     0.059    0.104     0  01:30       0.805        1.52      -0.107
  J6                   JUNCTION     0.000    0.071     0  05:30           0        1.05       0.203
  J7                   JUNCTION     0.000    0.052     0  05:11           0       0.808       0.013
  J8                   JUNCTION     0.229    0.280     0  05:15        3.79         4.6      -0.140
  J9                   JUNCTION     0.000    0.175     0  05:20           0        3.18       0.029
  Out_to_WWTP          OUTFALL      0.000    0.271     0  03:59           0        8.39       0.000
  T1                   STORAGE      0.000    0.546     0  04:51           0        10.4       3.590
  T2                   STORAGE      0.000    0.215     0  01:16           0        2.72      46.200
  T3                   STORAGE      0.000    0.418     0  03:34           0        7.71      20.149
  T4                   STORAGE      0.000    0.103     0  01:31           0        1.52      15.378
  T5                   STORAGE      0.000    0.104     0  00:51           0        1.58      19.058
  T6                   STORAGE      0.000    0.279     0  05:16           0        4.61      19.725
  
  
  **********************
  Node Surcharge Summary
  **********************
  
  No nodes were surcharged.
  
  
  *********************
  Node Flooding Summary
  *********************
  
  Flooding refers to all water that overflows a node, whether it ponds or not.
  --------------------------------------------------------------------------
                                                             Total   Maximum
                                 Maximum   Time of Max       Flood    Ponded
                        Hours       Rate    Occurrence      Volume     Depth
  Node                 Flooded       CMS   days hr:min    10^6 ltr    Meters
  --------------------------------------------------------------------------
  T1                      3.29     0.276      0  04:51       1.322     0.000
  T3                      1.12     0.227      0  05:24       0.402     0.000
  T6                      1.01     0.249      0  05:16       0.133     0.000
  
  
  **********************
  Storage Volume Summary
  **********************
  
  --------------------------------------------------------------------------------------------------
                         Average     Avg  Evap Exfil       Maximum     Max    Time of Max    Maximum
                          Volume    Pcnt  Pcnt  Pcnt        Volume    Pcnt     Occurrence    Outflow
  Storage Unit           1000 m3    Full  Loss  Loss       1000 m3    Full    days hr:min        CMS
  --------------------------------------------------------------------------------------------------
  T1                       0.496      71     0     0         0.700     100       0  03:57      0.271
  T2                       0.658      66     0     0         0.920      92       0  07:09      0.123
  T3                       1.860      72     0     0         2.600     100       0  05:18      0.190
  T4                       0.279      56     0     0         0.398      80       0  06:23      0.071
  T5                       0.274      55     0     0         0.424      85       0  06:00      0.036
  T6                       0.439      73     0     0         0.600     100       0  05:16      0.175
  
  
  ***********************
  Outfall Loading Summary
  ***********************
  
  -----------------------------------------------------------
                         Flow       Avg       Max       Total
                         Freq      Flow      Flow      Volume
  Outfall Node           Pcnt       CMS       CMS    10^6 ltr
  -----------------------------------------------------------
  Out_to_WWTP           99.41     0.217     0.271       8.387
  -----------------------------------------------------------
  System                99.41     0.217     0.271       8.387
  
  
  ********************
  Link Flow Summary
  ********************
  
  -----------------------------------------------------------------------------
                                 Maximum  Time of Max   Maximum    Max/    Max/
                                  |Flow|   Occurrence   |Veloc|    Full    Full
  Link                 Type          CMS  days hr:min     m/sec    Flow   Depth
  -----------------------------------------------------------------------------
  C1                   CONDUIT     0.036     0  06:02      0.95    0.01    0.12
  C10                  CONDUIT     0.279     0  05:16      1.81    0.03    0.56
  C11                  CONDUIT     0.296     0  05:45      1.92    0.01    0.10
  C12                  CONDUIT     0.175     0  05:48      1.17    0.01    0.29
  C13                  CONDUIT     0.418     0  03:34      2.27    0.02    0.75
  C14                  CONDUIT     0.271     0  03:59      2.08    0.02    0.09
  C15                  CONDUIT     0.202     0  00:41      2.43    0.64    0.51
  C16                  CONDUIT     0.200     0  00:46      1.33    0.02    0.09
  C17                  CONDUIT     0.360     0  00:43      2.25    0.02    0.29
  C18                  CONDUIT     0.215     0  01:16      3.17    0.01    0.53
  C19                  CONDUIT     0.123     0  04:55      1.29    0.04    0.20
  C2                   CONDUIT     0.070     0  05:42      1.70    0.08    0.24
  C20                  CONDUIT     0.207     0  00:51      3.22    0.01    0.08
  C21                  CONDUIT     0.063     0  03:36      1.44    0.36    0.33
  C22                  CONDUIT     0.062     0  00:56      1.01    0.03    0.20
  C23                  CONDUIT     0.546     0  04:51      1.47    0.06    0.58
  C3                   CONDUIT     0.190     0  05:32      2.17    0.07    0.18
  C4                   CONDUIT     0.104     0  00:51      3.10    0.03    0.55
  C5                   CONDUIT     0.046     0  01:30      1.34    0.78    0.73
  C6                   CONDUIT     0.045     0  01:33      1.21    0.72    0.52
  C7                   CONDUIT     0.103     0  01:31      1.52    0.03    0.55
  C8                   CONDUIT     0.052     0  05:11      1.23    0.65    0.53
  C9                   CONDUIT     0.051     0  05:16      0.99    0.17    0.32
  V1                   ORIFICE     0.271     0  03:57                      1.00
  V2                   ORIFICE     0.123     0  04:35                      1.00
  V3                   ORIFICE     0.190     0  05:19                      1.00
  V4                   ORIFICE     0.071     0  05:30                      1.00
  V5                   ORIFICE     0.036     0  06:00                      1.00
  V6                   ORIFICE     0.175     0  05:20                      1.00
  
  
  ***************************
  Flow Classification Summary
  ***************************
  
  -------------------------------------------------------------------------------------
                      Adjusted    ---------- Fraction of Time in Flow Class ---------- 
                       /Actual         Up    Down  Sub   Sup   Up    Down  Norm  Inlet 
  Conduit               Length    Dry  Dry   Dry   Crit  Crit  Crit  Crit  Ltd   Ctrl  
  -------------------------------------------------------------------------------------
  C1                      1.00   0.00  0.00  0.00  0.49  0.51  0.00  0.00  0.97  0.00
  C10                     1.00   0.00  0.00  0.00  0.96  0.04  0.00  0.00  0.99  0.00
  C11                     1.00   0.00  0.00  0.00  0.16  0.84  0.00  0.00  1.00  0.00
  C12                     1.00   0.00  0.00  0.00  0.95  0.05  0.00  0.00  1.00  0.00
  C13                     1.00   0.00  0.00  0.00  0.94  0.06  0.00  0.00  0.31  0.00
  C14                     1.00   0.00  0.00  0.00  0.01  0.99  0.00  0.00  0.26  0.00
  C15                     1.00   0.00  0.00  0.00  0.00  1.00  0.00  0.00  0.00  0.00
  C16                     1.00   0.00  0.00  0.00  0.35  0.65  0.00  0.00  0.40  0.00
  C17                     1.00   0.00  0.00  0.00  0.58  0.42  0.00  0.00  0.97  0.00
  C18                     1.00   0.00  0.00  0.00  0.95  0.05  0.00  0.00  0.98  0.00
  C19                     1.00   0.00  0.00  0.00  0.96  0.04  0.00  0.00  1.00  0.00
  C2                      1.00   0.00  0.00  0.00  0.31  0.69  0.00  0.00  0.98  0.00
  C20                     1.00   0.00  0.00  0.00  0.44  0.56  0.00  0.00  0.99  0.00
  C21                     1.00   0.00  0.00  0.00  0.00  1.00  0.00  0.00  0.00  0.00
  C22                     1.00   0.00  0.00  0.00  0.97  0.03  0.00  0.00  1.00  0.00
  C23                     1.00   0.00  0.00  0.00  0.94  0.06  0.00  0.00  0.96  0.00
  C3                      1.00   0.00  0.00  0.00  0.02  0.97  0.00  0.00  0.56  0.00
  C4                      1.00   0.00  0.00  0.00  0.97  0.03  0.00  0.00  0.99  0.00
  C5                      1.00   0.00  0.00  0.00  0.93  0.07  0.00  0.00  0.99  0.00
  C6                      1.00   0.00  0.00  0.00  0.01  0.99  0.00  0.00  0.00  0.00
  C7                      1.00   0.00  0.00  0.00  0.96  0.04  0.00  0.00  0.98  0.00
  C8                      1.00   0.00  0.00  0.00  0.18  0.82  0.00  0.00  0.00  0.00
  C9                      1.00   0.00  0.00  0.00  1.00  0.00  0.00  0.00  1.00  0.00
  
  
  *************************
  Conduit Surcharge Summary
  *************************
  
  ----------------------------------------------------------------------------
                                                           Hours        Hours 
                         --------- Hours Full --------   Above Full   Capacity
  Conduit                Both Ends  Upstream  Dnstream   Normal Flow   Limited
  ----------------------------------------------------------------------------
  C10                         0.01      0.01      9.39      0.01         0.01
  C13                         0.01      0.01      8.65      0.01         0.01
  C18                         0.01      0.01      8.75      0.01         0.01
  C23                         0.01      0.01      9.43      0.01         0.01
  C4                          0.01      0.01      9.48      0.01         0.01
  C7                          0.01      0.01      9.40      0.01         0.01
  

  Analysis begun on:  Sun Jul 17 20:36:29 2022
  Analysis ended on:  Sun Jul 17 20:36:30 2022
  Total elapsed time: 00:00:01