
  EPA STORM WATER MANAGEMENT MODEL - VERSION 5.1 (Build 5.3.0.dev0)
  --------------------------------------------------------------

  
  *********************************************************
  NOTE: The summary statistics displayed in this report are
  based on results found at every computational time step,  
  not just on results from each reporting time step.
  *********************************************************
  
  ****************
  Analysis Options
  ****************
  Flow Units ............... CMS
  Process Models:
    Rainfall/Runoff ........ YES
    RDII ................... NO
    Snowmelt ............... NO
    Groundwater ............ NO
    Flow Routing ........... YES
    Ponding Allowed ........ NO
    Water Quality .......... NO
  Infiltration Method ...... HORTON
  Flow Routing Method ...... DYNWAVE
  Surcharge Method ......... EXTRAN
  Starting Date ............ 03/29/2008 20:50:00
  Ending Date .............. 03/30/2008 06:50:00
  Antecedent Dry Days ...... 0.0
  Report Time Step ......... 00:05:00
  Wet Time Step ............ 00:05:00
  Dry Time Step ............ 01:00:00
  Routing Time Step ........ 30.00 sec
  Variable Time Step ....... YES
  Maximum Trials ........... 8
  Number of Threads ........ 1
  Head Tolerance ........... 0.001500 m
  
  
  **************************        Volume         Depth
  Runoff Quantity Continuity     hectare-m            mm
  **************************     ---------       -------
  Total Precipitation ......         0.930         5.159
  Evaporation Loss .........         0.000         0.000
  Infiltration Loss ........         0.000         0.000
  Surface Runoff ...........         0.907         5.033
  Final Storage ............         0.024         0.135
  Continuity Error (%) .....        -0.174
  
  
  **************************        Volume        Volume
  Flow Routing Continuity        hectare-m      10^6 ltr
  **************************     ---------     ---------
  Dry Weather Inflow .......         0.143         1.426
  Wet Weather Inflow .......         0.907         9.067
  Groundwater Inflow .......         0.000         0.000
  RDII Inflow ..............         0.000         0.000
  External Inflow ..........         0.000         0.000
  External Outflow .........         0.631         6.314
  Flooding Loss ............         0.000         0.000
  Evaporation Loss .........         0.000         0.000
  Exfiltration Loss ........         0.000         0.000
  Initial Stored Volume ....         0.000         0.000
  Final Stored Volume ......         0.390         3.901
  Continuity Error (%) .....         2.642
  
  
  *************************
  Highest Continuity Errors
  *************************
  Node T2 (31.08%)
  Node T6 (25.16%)
  Node T5 (13.74%)
  Node T3 (13.21%)
  Node T4 (8.33%)
  
  
  ***************************
  Time-Step Critical Elements
  ***************************
  Link C15 (32.82%)
  
  
  ********************************
  Highest Flow Instability Indexes
  ********************************
  Link C12 (3)
  Link C11 (3)
  Link V3 (3)
  Link V6 (3)
  Link C3 (3)
  
  
  *************************
  Routing Time Step Summary
  *************************
  Minimum Time Step           :     0.70 sec
  Average Time Step           :    27.53 sec
  Maximum Time Step           :    30.00 sec
  Percent in Steady State     :     0.67
  Average Iterations per Step :     2.02
  Percent Not Converging      :     0.00
  
  
  ***************************
  Subcatchment Runoff Summary
  ***************************
  
  ------------------------------------------------------------------------------------------------------------------------------
                            Total      Total      Total      Total     Imperv       Perv      Total       Total     Peak  Runoff
                           Precip      Runon       Evap      Infil     Runoff     Runoff     Runoff      Runoff   Runoff   Coeff
  Subcatchment                 mm         mm         mm         mm         mm         mm         mm    10^6 ltr      CMS
  ------------------------------------------------------------------------------------------------------------------------------
  SC01                       5.29       0.00       0.00       0.00       5.19       0.00       5.19        1.71     0.20   0.980
  SC010                      5.29       0.00       0.00       0.00       5.15       0.00       5.15        0.61     0.07   0.974
  SC02                       4.99       0.00       0.00       0.00       4.92       0.00       4.92        1.12     0.21   0.985
  SC03                       5.43       0.00       0.00       0.00       5.37       0.00       5.37        0.97     0.14   0.989
  SC04                       4.99       0.00       0.00       0.00       4.85       0.00       4.85        0.33     0.04   0.972
  SC05                       5.29       0.00       0.00       0.00       5.18       0.00       5.18        0.81     0.09   0.979
  SC06                       4.79       0.00       0.00       0.00       4.56       0.00       4.56        1.48     0.12   0.952
  SC07                       4.99       0.00       0.00       0.00       4.85       0.00       4.85        0.23     0.03   0.972
  SC08                       5.43       0.00       0.00       0.00       5.32       0.00       5.32        1.49     0.17   0.980
  SC09                       4.79       0.00       0.00       0.00       4.65       0.00       4.65        0.32     0.03   0.970
  
  
  ******************
  Node Depth Summary
  ******************
  
  ---------------------------------------------------------------------------------
                                 Average  Maximum  Maximum  Time of Max    Reported
                                   Depth    Depth      HGL   Occurrence   Max Depth
  Node                 Type       Meters   Meters   Meters  days hr:min      Meters
  ---------------------------------------------------------------------------------
  CSO10                JUNCTION     0.10     0.21    30.21     0  02:35        0.21
  CSO7                 JUNCTION     0.07     0.14    34.14     0  01:31        0.14
  CSO8                 JUNCTION     0.11     0.25    32.25     0  01:30        0.24
  CSO9                 JUNCTION     0.08     0.15    40.15     0  01:36        0.15
  J1                   JUNCTION     0.06     0.11    34.11     0  01:35        0.11
  J10                  JUNCTION     0.08     0.17    29.17     0  01:33        0.17
  J11                  JUNCTION     0.08     0.18    31.18     0  01:34        0.18
  J12                  JUNCTION     0.11     0.20    26.20     0  01:37        0.19
  J13                  JUNCTION     0.05     0.12    29.12     0  01:26        0.12
  J14                  JUNCTION     0.11     0.16    20.16     0  06:22        0.16
  J15                  JUNCTION     0.15     0.22    15.22     0  02:51        0.22
  J16                  JUNCTION     0.06     0.11    30.11     0  01:31        0.11
  J17                  JUNCTION     0.05     0.12    20.12     0  05:25        0.12
  J18                  JUNCTION     0.05     0.10    29.10     0  02:36        0.10
  J19                  JUNCTION     0.13     0.17     8.17     0  04:04        0.17
  J2                   JUNCTION     0.06     0.07    25.07     0  03:45        0.07
  J3                   JUNCTION     0.10     0.14    18.14     0  03:52        0.14
  J4                   JUNCTION     0.08     0.16    33.16     0  01:36        0.16
  J5                   JUNCTION     0.05     0.09    32.09     0  01:35        0.09
  J6                   JUNCTION     0.05     0.10    25.10     0  03:42        0.10
  J7                   JUNCTION     0.06     0.11    39.11     0  01:41        0.11
  J8                   JUNCTION     0.08     0.13    36.13     0  01:41        0.13
  J9                   JUNCTION     0.07     0.15    29.15     0  05:13        0.15
  Out_to_WWTP          OUTFALL      0.13     0.17     6.17     0  04:04        0.17
  T1                   STORAGE      2.46     4.60    14.60     0  04:03        4.60
  T2                   STORAGE      1.62     2.22    23.22     0  04:33        2.22
  T3                   STORAGE      1.56     2.23    24.23     0  06:32        2.23
  T4                   STORAGE      1.01     1.92    28.92     0  03:35        1.92
  T5                   STORAGE      1.57     2.65    29.65     0  03:43        2.65
  T6                   STORAGE      2.13     3.21    34.21     0  05:05        3.21
  
  
  *******************
  Node Inflow Summary
  *******************
  
  -------------------------------------------------------------------------------------------------
                                  Maximum  Maximum                  Lateral       Total        Flow
                                  Lateral    Total  Time of Max      Inflow      Inflow     Balance
                                   Inflow   Inflow   Occurrence      Volume      Volume       Error
  Node                 Type           CMS      CMS  days hr:min    10^6 ltr    10^6 ltr     Percent
  -------------------------------------------------------------------------------------------------
  CSO10                JUNCTION     0.070    0.070     0  02:35       0.658       0.659       0.052
  CSO7                 JUNCTION     0.033    0.033     0  01:30       0.341       0.341       0.120
  CSO8                 JUNCTION     0.169    0.169     0  01:30        1.52        1.52       0.014
  CSO9                 JUNCTION     0.034    0.034     0  01:35       0.395       0.396       0.092
  J1                   JUNCTION     0.097    0.097     0  01:35        1.02        1.02      -0.018
  J10                  JUNCTION     0.144    0.298     0  01:31        1.11        2.63       0.130
  J11                  JUNCTION     0.000    0.169     0  01:31           0        1.52       0.378
  J12                  JUNCTION     0.000    0.350     0  01:34           0        3.92       0.150
  J13                  JUNCTION     0.208    0.208     0  01:25         1.3         1.3      -0.393
  J14                  JUNCTION     0.000    0.126     0  06:21           0        2.52       0.199
  J15                  JUNCTION     0.000    0.467     0  02:50           0        6.91       0.820
  J16                  JUNCTION     0.207    0.207     0  01:30        1.92        1.92      -0.010
  J17                  JUNCTION     0.000    0.093     0  05:20           0       0.512       0.394
  J18                  JUNCTION     0.000    0.069     0  02:35           0       0.658       0.099
  J19                  JUNCTION     0.000    0.259     0  04:04           0        6.32       0.132
  J2                   JUNCTION     0.000    0.029     0  03:43           0       0.752       0.446
  J3                   JUNCTION     0.000    0.203     0  03:40           0        3.84       0.672
  J4                   JUNCTION     0.000    0.032     0  01:31           0       0.341       0.958
  J5                   JUNCTION     0.045    0.076     0  01:34       0.383       0.721       0.104
  J6                   JUNCTION     0.000    0.049     0  03:35           0       0.581       0.321
  J7                   JUNCTION     0.000    0.034     0  01:37           0       0.395       0.681
  J8                   JUNCTION     0.130    0.164     0  01:40        1.84        2.24       0.161
  J9                   JUNCTION     0.000    0.140     0  05:05           0         1.3       0.387
  Out_to_WWTP          OUTFALL      0.000    0.259     0  04:04           0        6.31       0.000
  T1                   STORAGE      0.000    0.428     0  02:51           0        6.85       4.602
  T2                   STORAGE      0.000    0.208     0  01:27           0         1.3      45.097
  T3                   STORAGE      0.000    0.342     0  01:37           0        3.91      15.227
  T4                   STORAGE      0.000    0.076     0  01:35           0        0.72       9.083
  T5                   STORAGE      0.000    0.097     0  01:35           0        1.02      15.935
  T6                   STORAGE      0.000    0.162     0  01:41           0        2.23      33.614
  
  
  **********************
  Node Surcharge Summary
  **********************
  
  No nodes were surcharged.
  
  
  *********************
  Node Flooding Summary
  *********************
  
  No nodes were flooded.
  
  
  **********************
  Storage Volume Summary
  **********************
  
  --------------------------------------------------------------------------------------------------
                         Average     Avg  Evap Exfil       Maximum     Max    Time of Max    Maximum
                          Volume    Pcnt  Pcnt  Pcnt        Volume    Pcnt     Occurrence    Outflow
  Storage Unit           1000 m3    Full  Loss  Loss       1000 m3    Full    days hr:min        CMS
  --------------------------------------------------------------------------------------------------
  T1                       0.345      49     0     0         0.644      92       0  04:03      0.259
  T2                       0.324      32     0     0         0.444      44       0  04:33      0.093
  T3                       0.812      31     0     0         1.159      45       0  06:32      0.126
  T4                       0.101      20     0     0         0.192      38       0  03:35      0.049
  T5                       0.157      31     0     0         0.265      53       0  03:43      0.029
  T6                       0.256      43     0     0         0.385      64       0  05:05      0.140
  
  
  ***********************
  Outfall Loading Summary
  ***********************
  
  -----------------------------------------------------------
                         Flow       Avg       Max       Total
                         Freq      Flow      Flow      Volume
  Outfall Node           Pcnt       CMS       CMS    10^6 ltr
  -----------------------------------------------------------
  Out_to_WWTP           99.16     0.177     0.259       6.314
  -----------------------------------------------------------
  System                99.16     0.177     0.259       6.314
  
  
  ********************
  Link Flow Summary
  ********************
  
  -----------------------------------------------------------------------------
                                 Maximum  Time of Max   Maximum    Max/    Max/
                                  |Flow|   Occurrence   |Veloc|    Full    Full
  Link                 Type          CMS  days hr:min     m/sec    Flow   Depth
  -----------------------------------------------------------------------------
  C1                   CONDUIT     0.029     0  03:45      0.96    0.01    0.10
  C10                  CONDUIT     0.162     0  01:41      1.55    0.02    0.54
  C11                  CONDUIT     0.203     0  03:52      1.93    0.01    0.09
  C12                  CONDUIT     0.139     0  05:15      1.54    0.01    0.08
  C13                  CONDUIT     0.342     0  01:37      1.76    0.02    0.54
  C14                  CONDUIT     0.259     0  04:04      2.05    0.01    0.08
  C15                  CONDUIT     0.169     0  01:31      2.32    0.54    0.46
  C16                  CONDUIT     0.164     0  01:34      1.25    0.02    0.09
  C17                  CONDUIT     0.295     0  01:33      2.13    0.01    0.09
  C18                  CONDUIT     0.208     0  01:27      5.94    0.01    0.52
  C19                  CONDUIT     0.089     0  05:25      1.37    0.03    0.17
  C2                   CONDUIT     0.049     0  03:42      1.27    0.06    0.20
  C20                  CONDUIT     0.206     0  01:31      4.25    0.01    0.08
  C21                  CONDUIT     0.069     0  02:35      1.47    0.40    0.35
  C22                  CONDUIT     0.069     0  02:36      1.07    0.03    0.20
  C23                  CONDUIT     0.428     0  02:51      1.43    0.05    0.57
  C3                   CONDUIT     0.127     0  06:23      1.95    0.05    0.15
  C4                   CONDUIT     0.097     0  01:35      4.82    0.02    0.55
  C5                   CONDUIT     0.032     0  01:31      1.18    0.55    0.58
  C6                   CONDUIT     0.032     0  01:36      1.10    0.50    0.43
  C7                   CONDUIT     0.076     0  01:35      1.35    0.02    0.54
  C8                   CONDUIT     0.034     0  01:37      1.10    0.43    0.42
  C9                   CONDUIT     0.034     0  01:41      0.89    0.12    0.25
  V1                   ORIFICE     0.259     0  04:04                      1.00
  V2                   ORIFICE     0.093     0  05:20                      1.00
  V3                   ORIFICE     0.126     0  06:21                      1.00
  V4                   ORIFICE     0.049     0  03:35                      1.00
  V5                   ORIFICE     0.029     0  03:43                      1.00
  V6                   ORIFICE     0.140     0  05:05                      1.00
  
  
  ***************************
  Flow Classification Summary
  ***************************
  
  -------------------------------------------------------------------------------------
                      Adjusted    ---------- Fraction of Time in Flow Class ---------- 
                       /Actual         Up    Down  Sub   Sup   Up    Down  Norm  Inlet 
  Conduit               Length    Dry  Dry   Dry   Crit  Crit  Crit  Crit  Ltd   Ctrl  
  -------------------------------------------------------------------------------------
  C1                      1.00   0.00  0.00  0.00  0.64  0.36  0.00  0.00  0.95  0.00
  C10                     1.00   0.00  0.00  0.00  0.97  0.03  0.00  0.00  0.98  0.00
  C11                     1.00   0.00  0.00  0.00  0.24  0.76  0.00  0.00  1.00  0.00
  C12                     1.00   0.00  0.00  0.00  0.62  0.38  0.00  0.00  0.93  0.00
  C13                     1.00   0.00  0.00  0.00  0.88  0.12  0.00  0.00  0.89  0.00
  C14                     1.00   0.01  0.00  0.00  0.01  0.99  0.00  0.00  0.64  0.00
  C15                     1.00   0.06  0.00  0.00  0.00  0.93  0.00  0.00  0.00  0.00
  C16                     1.00   0.00  0.06  0.00  0.32  0.62  0.00  0.00  0.25  0.00
  C17                     1.00   0.00  0.00  0.00  0.23  0.77  0.00  0.00  0.97  0.00
  C18                     1.00   0.00  0.00  0.00  0.90  0.10  0.00  0.00  0.98  0.00
  C19                     1.00   0.00  0.00  0.00  0.96  0.04  0.00  0.00  1.00  0.00
  C2                      1.00   0.00  0.00  0.00  0.67  0.33  0.00  0.00  0.99  0.00
  C20                     1.00   0.00  0.00  0.00  0.60  0.40  0.00  0.00  0.98  0.00
  C21                     1.00   0.00  0.00  0.00  0.00  1.00  0.00  0.00  0.00  0.00
  C22                     1.00   0.00  0.00  0.00  0.92  0.07  0.00  0.00  1.00  0.00
  C23                     1.00   0.00  0.00  0.00  0.89  0.11  0.00  0.00  0.95  0.00
  C3                      1.00   0.00  0.00  0.00  0.08  0.92  0.00  0.00  0.22  0.00
  C4                      1.00   0.00  0.00  0.00  0.96  0.04  0.00  0.00  0.98  0.00
  C5                      1.00   0.00  0.00  0.00  0.87  0.13  0.00  0.00  0.98  0.00
  C6                      1.00   0.00  0.00  0.00  0.01  0.99  0.00  0.00  0.00  0.00
  C7                      1.00   0.00  0.00  0.00  0.92  0.08  0.00  0.00  0.97  0.00
  C8                      1.00   0.00  0.00  0.00  0.04  0.96  0.00  0.00  0.00  0.00
  C9                      1.00   0.00  0.00  0.00  1.00  0.00  0.00  0.00  1.00  0.00
  
  
  *************************
  Conduit Surcharge Summary
  *************************
  
  ----------------------------------------------------------------------------
                                                           Hours        Hours 
                         --------- Hours Full --------   Above Full   Capacity
  Conduit                Both Ends  Upstream  Dnstream   Normal Flow   Limited
  ----------------------------------------------------------------------------
  C10                         0.01      0.01      7.49      0.01         0.01
  C13                         0.01      0.01      4.75      0.01         0.01
  C18                         0.01      0.01      3.46      0.01         0.01
  C23                         0.01      0.01      8.24      0.01         0.01
  C4                          0.01      0.01      8.24      0.01         0.01
  C7                          0.01      0.01      4.64      0.01         0.01
  

  Analysis begun on:  Sun Jul 17 20:40:29 2022
  Analysis ended on:  Sun Jul 17 20:40:30 2022
  Total elapsed time: 00:00:01