
  EPA STORM WATER MANAGEMENT MODEL - VERSION 5.1 (Build 5.3.0.dev0)
  --------------------------------------------------------------

  
  *********************************************************
  NOTE: The summary statistics displayed in this report are
  based on results found at every computational time step,  
  not just on results from each reporting time step.
  *********************************************************
  
  ****************
  Analysis Options
  ****************
  Flow Units ............... CMS
  Process Models:
    Rainfall/Runoff ........ YES
    RDII ................... NO
    Snowmelt ............... NO
    Groundwater ............ NO
    Flow Routing ........... YES
    Ponding Allowed ........ NO
    Water Quality .......... NO
  Infiltration Method ...... HORTON
  Flow Routing Method ...... DYNWAVE
  Surcharge Method ......... EXTRAN
  Starting Date ............ 10/08/2008 14:50:00
  Ending Date .............. 10/09/2008 04:00:00
  Antecedent Dry Days ...... 0.0
  Report Time Step ......... 00:05:00
  Wet Time Step ............ 00:05:00
  Dry Time Step ............ 01:00:00
  Routing Time Step ........ 30.00 sec
  Variable Time Step ....... YES
  Maximum Trials ........... 8
  Number of Threads ........ 1
  Head Tolerance ........... 0.001500 m
  
  
  **************************        Volume         Depth
  Runoff Quantity Continuity     hectare-m            mm
  **************************     ---------       -------
  Total Precipitation ......         0.942         5.228
  Evaporation Loss .........         0.000         0.000
  Infiltration Loss ........         0.000         0.000
  Surface Runoff ...........         0.921         5.110
  Final Storage ............         0.025         0.139
  Continuity Error (%) .....        -0.396
  
  
  **************************        Volume        Volume
  Flow Routing Continuity        hectare-m      10^6 ltr
  **************************     ---------     ---------
  Dry Weather Inflow .......         0.281         2.810
  Wet Weather Inflow .......         0.921         9.208
  Groundwater Inflow .......         0.000         0.000
  RDII Inflow ..............         0.000         0.000
  External Inflow ..........         0.000         0.000
  External Outflow .........         0.825         8.255
  Flooding Loss ............         0.000         0.000
  Evaporation Loss .........         0.000         0.000
  Exfiltration Loss ........         0.000         0.000
  Initial Stored Volume ....         0.000         0.000
  Final Stored Volume ......         0.372         3.716
  Continuity Error (%) .....         0.399
  
  
  *************************
  Highest Continuity Errors
  *************************
  Node T2 (19.89%)
  Node T3 (13.56%)
  Node T6 (8.89%)
  Node T4 (8.33%)
  Node T5 (7.11%)
  
  
  ***************************
  Time-Step Critical Elements
  ***************************
  Link C15 (21.49%)
  Link C21 (1.31%)
  Link C8 (1.13%)
  
  
  ********************************
  Highest Flow Instability Indexes
  ********************************
  Link C15 (2)
  Link C20 (1)
  
  
  *************************
  Routing Time Step Summary
  *************************
  Minimum Time Step           :     0.09 sec
  Average Time Step           :    28.22 sec
  Maximum Time Step           :    30.00 sec
  Percent in Steady State     :     2.49
  Average Iterations per Step :     2.24
  Percent Not Converging      :     0.85
  
  
  ***************************
  Subcatchment Runoff Summary
  ***************************
  
  ------------------------------------------------------------------------------------------------------------------------------
                            Total      Total      Total      Total     Imperv       Perv      Total       Total     Peak  Runoff
                           Precip      Runon       Evap      Infil     Runoff     Runoff     Runoff      Runoff   Runoff   Coeff
  Subcatchment                 mm         mm         mm         mm         mm         mm         mm    10^6 ltr      CMS
  ------------------------------------------------------------------------------------------------------------------------------
  SC01                       5.32       0.00       0.00       0.00       5.23       0.00       5.23        1.73     0.32   0.983
  SC010                      5.32       0.00       0.00       0.00       5.20       0.00       5.20        0.61     0.10   0.978
  SC02                       4.16       0.00       0.00       0.00       4.06       0.00       4.06        0.92     0.20   0.977
  SC03                       5.39       0.00       0.00       0.00       5.36       0.00       5.36        0.97     0.44   0.995
  SC04                       4.16       0.00       0.00       0.00       3.98       0.00       3.98        0.27     0.04   0.958
  SC05                       5.32       0.00       0.00       0.00       5.22       0.00       5.22        0.82     0.15   0.982
  SC06                       5.83       0.00       0.00       0.00       5.62       0.00       5.62        1.83     0.37   0.963
  SC07                       4.16       0.00       0.00       0.00       3.98       0.00       3.98        0.19     0.03   0.958
  SC08                       5.39       0.00       0.00       0.00       5.28       0.00       5.28        1.48     0.43   0.980
  SC09                       5.83       0.00       0.00       0.00       5.70       0.00       5.70        0.39     0.11   0.978
  
  
  ******************
  Node Depth Summary
  ******************
  
  ---------------------------------------------------------------------------------
                                 Average  Maximum  Maximum  Time of Max    Reported
                                   Depth    Depth      HGL   Occurrence   Max Depth
  Node                 Type       Meters   Meters   Meters  days hr:min      Meters
  ---------------------------------------------------------------------------------
  CSO10                JUNCTION     0.08     0.27    30.27     0  03:01        0.26
  CSO7                 JUNCTION     0.06     0.14    34.14     0  02:30        0.14
  CSO8                 JUNCTION     0.11     1.62    33.62     0  01:25        1.61
  CSO9                 JUNCTION     0.09     1.42    41.42     0  02:30        1.40
  J1                   JUNCTION     0.05     0.13    34.13     0  02:30        0.13
  J10                  JUNCTION     0.07     0.27    29.27     0  01:26        0.26
  J11                  JUNCTION     0.07     0.27    31.27     0  01:27        0.26
  J12                  JUNCTION     0.11     0.29    26.29     0  01:29        0.29
  J13                  JUNCTION     0.04     0.13    29.13     0  02:25        0.13
  J14                  JUNCTION     0.11     0.13    20.13     0  09:53        0.13
  J15                  JUNCTION     0.14     0.24    15.24     0  03:07        0.24
  J16                  JUNCTION     0.05     0.14    30.14     0  02:30        0.14
  J17                  JUNCTION     0.05     0.06    20.06     0  05:13        0.06
  J18                  JUNCTION     0.04     0.12    29.12     0  02:32        0.12
  J19                  JUNCTION     0.13     0.17     8.17     0  04:05        0.17
  J2                   JUNCTION     0.06     0.07    25.07     0  04:36        0.07
  J3                   JUNCTION     0.10     0.12    18.12     0  05:18        0.12
  J4                   JUNCTION     0.08     0.17    33.17     0  02:34        0.17
  J5                   JUNCTION     0.04     0.10    32.10     0  02:33        0.09
  J6                   JUNCTION     0.05     0.06    25.06     0  05:18        0.06
  J7                   JUNCTION     0.06     0.20    39.20     0  02:32        0.20
  J8                   JUNCTION     0.08     0.23    36.23     0  02:32        0.22
  J9                   JUNCTION     0.09     0.11    29.11     0  04:19        0.11
  Out_to_WWTP          OUTFALL      0.13     0.17     6.17     0  04:06        0.17
  T1                   STORAGE      2.34     4.53    14.53     0  04:05        4.53
  T2                   STORAGE      1.29     1.91    22.91     0  05:11        1.91
  T3                   STORAGE      1.96     2.59    24.59     0  09:44        2.59
  T4                   STORAGE      1.21     2.07    29.07     0  05:16        2.07
  T5                   STORAGE      1.75     3.11    30.11     0  04:34        3.11
  T6                   STORAGE      2.82     4.74    35.74     0  04:16        4.74
  
  
  *******************
  Node Inflow Summary
  *******************
  
  -------------------------------------------------------------------------------------------------
                                  Maximum  Maximum                  Lateral       Total        Flow
                                  Lateral    Total  Time of Max      Inflow      Inflow     Balance
                                   Inflow   Inflow   Occurrence      Volume      Volume       Error
  Node                 Type           CMS      CMS  days hr:min    10^6 ltr    10^6 ltr     Percent
  -------------------------------------------------------------------------------------------------
  CSO10                JUNCTION     0.105    0.105     0  02:30       0.714       0.714       0.063
  CSO7                 JUNCTION     0.035    0.035     0  02:30       0.403       0.403       0.036
  CSO8                 JUNCTION     0.440    0.440     0  01:25         1.6         1.6       0.050
  CSO9                 JUNCTION     0.110    0.110     0  02:30       0.537       0.538       0.044
  J1                   JUNCTION     0.162    0.162     0  02:30        1.23        1.23      -0.041
  J10                  JUNCTION     0.453    0.799     0  01:25        1.25        2.84       0.003
  J11                  JUNCTION     0.000    0.440     0  01:25           0         1.6       0.179
  J12                  JUNCTION     0.000    0.821     0  01:27           0        5.43       0.160
  J13                  JUNCTION     0.210    0.210     0  02:25        1.27        1.27      -0.464
  J14                  JUNCTION     0.000    0.089     0  09:45           0        3.52       0.161
  J15                  JUNCTION     0.000    0.543     0  03:02           0        8.79       0.647
  J16                  JUNCTION     0.337    0.337     0  02:30        2.14        2.13      -0.016
  J17                  JUNCTION     0.000    0.021     0  05:11           0       0.772       0.525
  J18                  JUNCTION     0.000    0.104     0  02:31           0       0.714       0.029
  J19                  JUNCTION     0.000    0.257     0  04:05           0        8.26       0.097
  J2                   JUNCTION     0.000    0.031     0  04:34           0        1.05       0.264
  J3                   JUNCTION     0.000    0.134     0  05:16           0         5.2       0.509
  J4                   JUNCTION     0.000    0.035     0  02:30           0       0.403       0.364
  J5                   JUNCTION     0.044    0.077     0  02:31       0.369       0.771      -0.050
  J6                   JUNCTION     0.000    0.018     0  05:16           0        0.63       0.333
  J7                   JUNCTION     0.000    0.110     0  02:30           0       0.537       0.331
  J8                   JUNCTION     0.395    0.488     0  02:30        2.52        3.06      -0.034
  J9                   JUNCTION     0.000    0.073     0  04:16           0         2.6       0.457
  Out_to_WWTP          OUTFALL      0.000    0.257     0  04:06           0        8.25       0.000
  T1                   STORAGE      0.000    0.518     0  03:07           0        8.73       2.962
  T2                   STORAGE      0.000    0.209     0  02:26           0        1.28      24.821
  T3                   STORAGE      0.000    0.751     0  01:29           0        5.42      15.693
  T4                   STORAGE      0.000    0.077     0  02:33           0       0.771       9.091
  T5                   STORAGE      0.000    0.160     0  02:31           0        1.23       7.651
  T6                   STORAGE      0.000    0.480     0  02:32           0        3.06       9.762
  
  
  **********************
  Node Surcharge Summary
  **********************
  
  Surcharging occurs when water rises above the top of the highest conduit.
  ---------------------------------------------------------------------
                                               Max. Height   Min. Depth
                                   Hours       Above Crown    Below Rim
  Node                 Type      Surcharged         Meters       Meters
  ---------------------------------------------------------------------
  CSO8                 JUNCTION        0.15          1.167        0.380
  CSO9                 JUNCTION        0.22          1.105        0.577
  
  
  *********************
  Node Flooding Summary
  *********************
  
  No nodes were flooded.
  
  
  **********************
  Storage Volume Summary
  **********************
  
  --------------------------------------------------------------------------------------------------
                         Average     Avg  Evap Exfil       Maximum     Max    Time of Max    Maximum
                          Volume    Pcnt  Pcnt  Pcnt        Volume    Pcnt     Occurrence    Outflow
  Storage Unit           1000 m3    Full  Loss  Loss       1000 m3    Full    days hr:min        CMS
  --------------------------------------------------------------------------------------------------
  T1                       0.327      47     0     0         0.634      91       0  04:05      0.257
  T2                       0.259      26     0     0         0.383      38       0  05:11      0.021
  T3                       1.017      39     0     0         1.349      52       0  09:44      0.089
  T4                       0.121      24     0     0         0.207      41       0  05:16      0.018
  T5                       0.175      35     0     0         0.311      62       0  04:34      0.031
  T6                       0.339      56     0     0         0.569      95       0  04:16      0.073
  
  
  ***********************
  Outfall Loading Summary
  ***********************
  
  -----------------------------------------------------------
                         Flow       Avg       Max       Total
                         Freq      Flow      Flow      Volume
  Outfall Node           Pcnt       CMS       CMS    10^6 ltr
  -----------------------------------------------------------
  Out_to_WWTP           99.35     0.172     0.257       8.255
  -----------------------------------------------------------
  System                99.35     0.172     0.257       8.255
  
  
  ********************
  Link Flow Summary
  ********************
  
  -----------------------------------------------------------------------------
                                 Maximum  Time of Max   Maximum    Max/    Max/
                                  |Flow|   Occurrence   |Veloc|    Full    Full
  Link                 Type          CMS  days hr:min     m/sec    Flow   Depth
  -----------------------------------------------------------------------------
  C1                   CONDUIT     0.031     0  04:36      0.93    0.01    0.09
  C10                  CONDUIT     0.480     0  02:32      1.69    0.05    0.58
  C11                  CONDUIT     0.133     0  05:18      1.55    0.01    0.09
  C12                  CONDUIT     0.073     0  04:19      1.12    0.01    0.09
  C13                  CONDUIT     0.751     0  01:29      2.02    0.04    0.54
  C14                  CONDUIT     0.257     0  04:06      2.05    0.01    0.08
  C15                  CONDUIT     0.440     0  01:25      3.26    1.40    0.80
  C16                  CONDUIT     0.401     0  01:27      1.59    0.04    0.13
  C17                  CONDUIT     0.791     0  01:27      3.13    0.04    0.14
  C18                  CONDUIT     0.209     0  02:26      3.22    0.01    0.49
  C19                  CONDUIT     0.021     0  05:13      0.49    0.01    0.15
  C2                   CONDUIT     0.018     0  05:19      0.70    0.02    0.15
  C20                  CONDUIT     0.333     0  02:31      2.30    0.01    0.10
  C21                  CONDUIT     0.104     0  02:31      1.65    0.60    0.44
  C22                  CONDUIT     0.102     0  02:32      1.22    0.05    0.22
  C23                  CONDUIT     0.518     0  03:07      1.26    0.06    0.58
  C3                   CONDUIT     0.089     0  09:45      1.64    0.03    0.12
  C4                   CONDUIT     0.160     0  02:31      2.44    0.04    0.57
  C5                   CONDUIT     0.035     0  02:30      1.25    0.60    0.61
  C6                   CONDUIT     0.034     0  02:34      1.14    0.54    0.44
  C7                   CONDUIT     0.077     0  02:33      1.47    0.02    0.55
  C8                   CONDUIT     0.110     0  02:30      1.60    1.39    0.82
  C9                   CONDUIT     0.101     0  02:32      1.26    0.35    0.43
  V1                   ORIFICE     0.257     0  04:05                      1.00
  V2                   ORIFICE     0.021     0  05:11                      0.24
  V3                   ORIFICE     0.089     0  09:45                      0.65
  V4                   ORIFICE     0.018     0  05:16                      0.35
  V5                   ORIFICE     0.031     0  04:34                      1.00
  V6                   ORIFICE     0.073     0  04:16                      0.43
  
  
  ***************************
  Flow Classification Summary
  ***************************
  
  -------------------------------------------------------------------------------------
                      Adjusted    ---------- Fraction of Time in Flow Class ---------- 
                       /Actual         Up    Down  Sub   Sup   Up    Down  Norm  Inlet 
  Conduit               Length    Dry  Dry   Dry   Crit  Crit  Crit  Crit  Ltd   Ctrl  
  -------------------------------------------------------------------------------------
  C1                      1.00   0.00  0.00  0.00  0.55  0.45  0.00  0.00  0.97  0.00
  C10                     1.00   0.00  0.00  0.00  0.98  0.02  0.00  0.00  0.99  0.00
  C11                     1.00   0.00  0.00  0.00  0.16  0.84  0.00  0.00  1.00  0.00
  C12                     1.00   0.00  0.00  0.00  0.32  0.68  0.00  0.00  0.56  0.00
  C13                     1.00   0.00  0.00  0.00  0.90  0.10  0.00  0.00  0.94  0.00
  C14                     1.00   0.00  0.00  0.00  0.01  0.99  0.00  0.00  0.66  0.00
  C15                     1.00   0.00  0.00  0.00  0.00  1.00  0.00  0.00  0.00  0.00
  C16                     1.00   0.00  0.00  0.00  0.60  0.40  0.00  0.00  0.51  0.00
  C17                     1.00   0.00  0.00  0.00  0.56  0.44  0.00  0.00  0.97  0.00
  C18                     1.00   0.00  0.00  0.00  0.97  0.03  0.00  0.00  0.98  0.00
  C19                     1.00   0.00  0.00  0.00  1.00  0.00  0.00  0.00  1.00  0.00
  C2                      1.00   0.00  0.00  0.00  0.95  0.05  0.00  0.00  0.98  0.00
  C20                     1.00   0.00  0.00  0.00  0.66  0.34  0.00  0.00  0.99  0.00
  C21                     1.00   0.00  0.00  0.00  0.00  1.00  0.00  0.00  0.00  0.00
  C22                     1.00   0.00  0.00  0.00  0.93  0.07  0.00  0.00  1.00  0.00
  C23                     1.00   0.00  0.00  0.00  0.93  0.07  0.00  0.00  0.97  0.00
  C3                      1.00   0.00  0.00  0.00  0.03  0.97  0.00  0.00  0.05  0.00
  C4                      1.00   0.00  0.00  0.00  0.98  0.02  0.00  0.00  0.99  0.00
  C5                      1.00   0.00  0.00  0.00  0.93  0.07  0.00  0.00  0.99  0.00
  C6                      1.00   0.00  0.00  0.00  0.01  0.99  0.00  0.00  0.00  0.00
  C7                      1.00   0.00  0.00  0.00  0.97  0.03  0.00  0.00  0.98  0.00
  C8                      1.00   0.00  0.00  0.00  0.23  0.77  0.00  0.00  0.00  0.00
  C9                      1.00   0.00  0.00  0.00  1.00  0.00  0.00  0.00  1.00  0.00
  
  
  *************************
  Conduit Surcharge Summary
  *************************
  
  ----------------------------------------------------------------------------
                                                           Hours        Hours 
                         --------- Hours Full --------   Above Full   Capacity
  Conduit                Both Ends  Upstream  Dnstream   Normal Flow   Limited
  ----------------------------------------------------------------------------
  C10                         0.01      0.01     10.71      0.01         0.01
  C13                         0.01      0.01      9.95      0.01         0.01
  C15                         0.01      0.15      0.01      0.17         0.01
  C23                         0.01      0.01     10.72      0.01         0.01
  C4                          0.01      0.01     10.15      0.01         0.01
  C7                          0.01      0.01      8.77      0.01         0.01
  C8                          0.01      0.22      0.01      0.22         0.01
  

  Analysis begun on:  Sun Jul 17 21:08:29 2022
  Analysis ended on:  Sun Jul 17 21:08:29 2022
  Total elapsed time: < 1 sec