
  EPA STORM WATER MANAGEMENT MODEL - VERSION 5.1 (Build 5.3.0.dev0)
  --------------------------------------------------------------

  
  *********************************************************
  NOTE: The summary statistics displayed in this report are
  based on results found at every computational time step,  
  not just on results from each reporting time step.
  *********************************************************
  
  ****************
  Analysis Options
  ****************
  Flow Units ............... CMS
  Process Models:
    Rainfall/Runoff ........ YES
    RDII ................... NO
    Snowmelt ............... NO
    Groundwater ............ NO
    Flow Routing ........... YES
    Ponding Allowed ........ NO
    Water Quality .......... NO
  Infiltration Method ...... HORTON
  Flow Routing Method ...... DYNWAVE
  Surcharge Method ......... EXTRAN
  Starting Date ............ 11/18/2009 00:35:00
  Ending Date .............. 11/18/2009 08:20:00
  Antecedent Dry Days ...... 0.0
  Report Time Step ......... 00:05:00
  Wet Time Step ............ 00:05:00
  Dry Time Step ............ 01:00:00
  Routing Time Step ........ 30.00 sec
  Variable Time Step ....... YES
  Maximum Trials ........... 8
  Number of Threads ........ 1
  Head Tolerance ........... 0.001500 m
  
  
  **************************        Volume         Depth
  Runoff Quantity Continuity     hectare-m            mm
  **************************     ---------       -------
  Total Precipitation ......         0.925         5.133
  Evaporation Loss .........         0.000         0.000
  Infiltration Loss ........         0.000         0.000
  Surface Runoff ...........         0.886         4.914
  Final Storage ............         0.041         0.229
  Continuity Error (%) .....        -0.197
  
  
  **************************        Volume        Volume
  Flow Routing Continuity        hectare-m      10^6 ltr
  **************************     ---------     ---------
  Dry Weather Inflow .......         0.161         1.609
  Wet Weather Inflow .......         0.885         8.849
  Groundwater Inflow .......         0.000         0.000
  RDII Inflow ..............         0.000         0.000
  External Inflow ..........         0.000         0.000
  External Outflow .........         0.418         4.175
  Flooding Loss ............         0.000         0.000
  Evaporation Loss .........         0.000         0.000
  Exfiltration Loss ........         0.000         0.000
  Initial Stored Volume ....         0.000         0.000
  Final Stored Volume ......         0.514         5.139
  Continuity Error (%) .....        10.941
  
  
  *************************
  Highest Continuity Errors
  *************************
  Node T2 (29.38%)
  Node T5 (26.43%)
  Node T6 (25.21%)
  Node T3 (22.72%)
  Node T4 (14.58%)
  
  
  ***************************
  Time-Step Critical Elements
  ***************************
  Link C15 (44.70%)
  
  
  ********************************
  Highest Flow Instability Indexes
  ********************************
  Link V3 (7)
  Link C11 (6)
  Link C19 (5)
  Link C2 (5)
  Link C3 (5)
  
  
  *************************
  Routing Time Step Summary
  *************************
  Minimum Time Step           :     0.08 sec
  Average Time Step           :    27.60 sec
  Maximum Time Step           :    30.00 sec
  Percent in Steady State     :     2.15
  Average Iterations per Step :     2.05
  Percent Not Converging      :     0.00
  
  
  ***************************
  Subcatchment Runoff Summary
  ***************************
  
  ------------------------------------------------------------------------------------------------------------------------------
                            Total      Total      Total      Total     Imperv       Perv      Total       Total     Peak  Runoff
                           Precip      Runon       Evap      Infil     Runoff     Runoff     Runoff      Runoff   Runoff   Coeff
  Subcatchment                 mm         mm         mm         mm         mm         mm         mm    10^6 ltr      CMS
  ------------------------------------------------------------------------------------------------------------------------------
  SC01                       5.12       0.00       0.00       0.00       4.99       0.00       4.99        1.65     0.34   0.974
  SC010                      5.12       0.00       0.00       0.00       4.93       0.00       4.93        0.58     0.11   0.962
  SC02                       4.35       0.00       0.00       0.00       4.21       0.00       4.21        0.96     0.13   0.968
  SC03                       4.76       0.00       0.00       0.00       4.67       0.00       4.67        0.84     0.13   0.982
  SC04                       4.35       0.00       0.00       0.00       4.03       0.00       4.03        0.28     0.03   0.926
  SC05                       5.12       0.00       0.00       0.00       4.97       0.00       4.97        0.78     0.16   0.971
  SC06                       6.27       0.00       0.00       0.00       5.81       0.00       5.81        1.89     0.29   0.927
  SC07                       4.35       0.00       0.00       0.00       4.03       0.00       4.03        0.19     0.02   0.926
  SC08                       4.76       0.00       0.00       0.00       4.57       0.00       4.57        1.28     0.15   0.960
  SC09                       6.27       0.00       0.00       0.00       6.02       0.00       6.02        0.42     0.07   0.959
  
  
  ******************
  Node Depth Summary
  ******************
  
  ---------------------------------------------------------------------------------
                                 Average  Maximum  Maximum  Time of Max    Reported
                                   Depth    Depth      HGL   Occurrence   Max Depth
  Node                 Type       Meters   Meters   Meters  days hr:min      Meters
  ---------------------------------------------------------------------------------
  CSO10                JUNCTION     0.11     0.28    30.28     0  05:21        0.27
  CSO7                 JUNCTION     0.07     0.12    34.12     0  05:20        0.12
  CSO8                 JUNCTION     0.12     0.23    32.23     0  05:15        0.23
  CSO9                 JUNCTION     0.10     0.26    40.26     0  05:20        0.25
  J1                   JUNCTION     0.06     0.14    34.14     0  05:21        0.13
  J10                  JUNCTION     0.09     0.16    29.16     0  05:19        0.16
  J11                  JUNCTION     0.09     0.17    31.17     0  05:19        0.17
  J12                  JUNCTION     0.12     0.19    26.19     0  05:37        0.19
  J13                  JUNCTION     0.06     0.10    29.10     0  05:20        0.10
  J14                  JUNCTION     0.09     0.17    20.17     0  07:02        0.16
  J15                  JUNCTION     0.14     0.27    15.27     0  05:26        0.27
  J16                  JUNCTION     0.06     0.15    30.15     0  05:21        0.14
  J17                  JUNCTION     0.05     0.11    20.11     0  05:45        0.11
  J18                  JUNCTION     0.05     0.12    29.12     0  05:23        0.12
  J19                  JUNCTION     0.12     0.17     8.17     0  06:00        0.17
  J2                   JUNCTION     0.05     0.07    25.07     0  06:22        0.07
  J3                   JUNCTION     0.09     0.14    18.14     0  07:10        0.14
  J4                   JUNCTION     0.09     0.14    33.14     0  05:23        0.14
  J5                   JUNCTION     0.05     0.08    32.08     0  05:22        0.08
  J6                   JUNCTION     0.05     0.09    25.09     0  07:07        0.09
  J7                   JUNCTION     0.08     0.17    39.17     0  05:22        0.16
  J8                   JUNCTION     0.10     0.20    36.20     0  05:21        0.20
  J9                   JUNCTION     0.09     0.16    29.16     0  06:48        0.16
  Out_to_WWTP          OUTFALL      0.12     0.17     6.17     0  06:00        0.17
  T1                   STORAGE      2.07     4.82    14.82     0  05:59        4.82
  T2                   STORAGE      0.91     1.62    22.62     0  07:44        1.61
  T3                   STORAGE      1.38     2.89    24.89     0  07:40        2.89
  T4                   STORAGE      0.66     1.34    28.34     0  07:00        1.34
  T5                   STORAGE      1.24     2.76    29.76     0  06:20        2.76
  T6                   STORAGE      1.72     4.53    35.53     0  06:40        4.53
  
  
  *******************
  Node Inflow Summary
  *******************
  
  -------------------------------------------------------------------------------------------------
                                  Maximum  Maximum                  Lateral       Total        Flow
                                  Lateral    Total  Time of Max      Inflow      Inflow     Balance
                                   Inflow   Inflow   Occurrence      Volume      Volume       Error
  Node                 Type           CMS      CMS  days hr:min    10^6 ltr    10^6 ltr     Percent
  -------------------------------------------------------------------------------------------------
  CSO10                JUNCTION     0.111    0.111     0  05:20       0.636       0.637       0.076
  CSO7                 JUNCTION     0.027    0.027     0  05:20       0.312       0.312       0.167
  CSO8                 JUNCTION     0.152    0.152     0  05:15        1.37        1.37       0.030
  CSO9                 JUNCTION     0.075    0.075     0  05:20       0.496       0.497       0.098
  J1                   JUNCTION     0.168    0.168     0  05:20        1.01        1.01       0.095
  J10                  JUNCTION     0.135    0.269     0  05:17           1        2.36       0.232
  J11                  JUNCTION     0.000    0.152     0  05:15           0        1.37       0.465
  J12                  JUNCTION     0.000    0.318     0  05:34           0        3.92       0.870
  J13                  JUNCTION     0.141    0.141     0  05:20        1.15        1.15      -0.142
  J14                  JUNCTION     0.000    0.144     0  07:40           0        1.51       0.567
  J15                  JUNCTION     0.000    0.655     0  05:25           0        5.38       1.308
  J16                  JUNCTION     0.352    0.352     0  05:20        1.88        1.88       0.053
  J17                  JUNCTION     0.000    0.075     0  05:40           0       0.492       0.456
  J18                  JUNCTION     0.000    0.111     0  05:21           0       0.636       0.205
  J19                  JUNCTION     0.000    0.266     0  05:59           0        4.19       0.269
  J2                   JUNCTION     0.000    0.029     0  06:20           0       0.481       0.951
  J3                   JUNCTION     0.000    0.212     0  07:23           0        2.42       1.625
  J4                   JUNCTION     0.000    0.027     0  05:20           0       0.312       1.406
  J5                   JUNCTION     0.033    0.058     0  05:20       0.331       0.638       0.346
  J6                   JUNCTION     0.000    0.041     0  07:00           0       0.442       1.102
  J7                   JUNCTION     0.000    0.074     0  05:21           0       0.496       0.674
  J8                   JUNCTION     0.305    0.372     0  05:20        2.28        2.78       0.263
  J9                   JUNCTION     0.000    0.166     0  06:40           0        1.59       1.776
  Out_to_WWTP          OUTFALL      0.000    0.266     0  06:00           0        4.18       0.000
  T1                   STORAGE      0.000    0.627     0  05:26           0        5.31      12.446
  T2                   STORAGE      0.000    0.139     0  05:20           0        1.15      41.593
  T3                   STORAGE      0.000    0.308     0  05:38           0        3.89      29.407
  T4                   STORAGE      0.000    0.057     0  05:22           0       0.636      17.072
  T5                   STORAGE      0.000    0.166     0  05:21           0        1.01      35.929
  T6                   STORAGE      0.000    0.366     0  05:21           0        2.77      33.704
  
  
  **********************
  Node Surcharge Summary
  **********************
  
  No nodes were surcharged.
  
  
  *********************
  Node Flooding Summary
  *********************
  
  No nodes were flooded.
  
  
  **********************
  Storage Volume Summary
  **********************
  
  --------------------------------------------------------------------------------------------------
                         Average     Avg  Evap Exfil       Maximum     Max    Time of Max    Maximum
                          Volume    Pcnt  Pcnt  Pcnt        Volume    Pcnt     Occurrence    Outflow
  Storage Unit           1000 m3    Full  Loss  Loss       1000 m3    Full    days hr:min        CMS
  --------------------------------------------------------------------------------------------------
  T1                       0.290      41     0     0         0.675      96       0  05:59      0.266
  T2                       0.183      18     0     0         0.324      32       0  07:44      0.075
  T3                       0.717      28     0     0         1.503      58       0  07:40      0.144
  T4                       0.066      13     0     0         0.134      27       0  07:00      0.041
  T5                       0.124      25     0     0         0.276      55       0  06:20      0.029
  T6                       0.207      34     0     0         0.543      91       0  06:40      0.166
  
  
  ***********************
  Outfall Loading Summary
  ***********************
  
  -----------------------------------------------------------
                         Flow       Avg       Max       Total
                         Freq      Flow      Flow      Volume
  Outfall Node           Pcnt       CMS       CMS    10^6 ltr
  -----------------------------------------------------------
  Out_to_WWTP           98.02     0.153     0.266       4.175
  -----------------------------------------------------------
  System                98.02     0.153     0.266       4.175
  
  
  ********************
  Link Flow Summary
  ********************
  
  -----------------------------------------------------------------------------
                                 Maximum  Time of Max   Maximum    Max/    Max/
                                  |Flow|   Occurrence   |Veloc|    Full    Full
  Link                 Type          CMS  days hr:min     m/sec    Flow   Depth
  -----------------------------------------------------------------------------
  C1                   CONDUIT     0.029     0  06:22      1.00    0.01    0.11
  C10                  CONDUIT     0.366     0  05:21      2.35    0.04    0.57
  C11                  CONDUIT     0.209     0  07:10      1.92    0.01    0.10
  C12                  CONDUIT     0.165     0  06:49      1.52    0.01    0.08
  C13                  CONDUIT     0.308     0  05:38      1.73    0.02    0.55
  C14                  CONDUIT     0.266     0  06:00      2.07    0.01    0.08
  C15                  CONDUIT     0.152     0  05:15      2.27    0.48    0.43
  C16                  CONDUIT     0.146     0  05:19      1.20    0.01    0.08
  C17                  CONDUIT     0.265     0  05:19      2.09    0.01    0.08
  C18                  CONDUIT     0.139     0  05:20      1.31    0.01    0.41
  C19                  CONDUIT     0.072     0  05:45      1.12    0.02    0.19
  C2                   CONDUIT     0.040     0  07:07      1.34    0.05    0.19
  C20                  CONDUIT     0.348     0  05:21      2.16    0.01    0.10
  C21                  CONDUIT     0.111     0  05:21      1.66    0.64    0.45
  C22                  CONDUIT     0.109     0  05:23      1.20    0.05    0.24
  C23                  CONDUIT     0.627     0  05:26      1.28    0.07    0.59
  C3                   CONDUIT     0.146     0  07:43      2.06    0.06    0.15
  C4                   CONDUIT     0.166     0  05:21      1.14    0.04    0.57
  C5                   CONDUIT     0.027     0  05:20      1.24    0.46    0.52
  C6                   CONDUIT     0.026     0  05:23      1.05    0.41    0.38
  C7                   CONDUIT     0.057     0  05:22      0.83    0.01    0.54
  C8                   CONDUIT     0.074     0  05:21      1.74    0.93    0.67
  C9                   CONDUIT     0.071     0  05:22      1.09    0.24    0.37
  V1                   ORIFICE     0.266     0  05:59                      1.00
  V2                   ORIFICE     0.075     0  05:40                      1.00
  V3                   ORIFICE     0.144     0  07:40                      1.00
  V4                   ORIFICE     0.041     0  07:00                      1.00
  V5                   ORIFICE     0.029     0  06:20                      1.00
  V6                   ORIFICE     0.166     0  06:40                      1.00
  
  
  ***************************
  Flow Classification Summary
  ***************************
  
  -------------------------------------------------------------------------------------
                      Adjusted    ---------- Fraction of Time in Flow Class ---------- 
                       /Actual         Up    Down  Sub   Sup   Up    Down  Norm  Inlet 
  Conduit               Length    Dry  Dry   Dry   Crit  Crit  Crit  Crit  Ltd   Ctrl  
  -------------------------------------------------------------------------------------
  C1                      1.00   0.00  0.00  0.00  0.51  0.49  0.00  0.00  0.88  0.00
  C10                     1.00   0.00  0.00  0.00  0.81  0.19  0.00  0.00  0.94  0.00
  C11                     1.00   0.00  0.00  0.00  0.39  0.60  0.00  0.00  1.00  0.00
  C12                     1.00   0.00  0.00  0.00  0.59  0.41  0.00  0.00  0.93  0.00
  C13                     1.00   0.00  0.00  0.00  0.82  0.17  0.00  0.00  0.84  0.00
  C14                     1.00   0.01  0.00  0.00  0.01  0.97  0.00  0.00  0.53  0.00
  C15                     1.00   0.06  0.00  0.00  0.00  0.93  0.00  0.00  0.00  0.00
  C16                     1.00   0.00  0.06  0.00  0.10  0.84  0.00  0.00  0.09  0.00
  C17                     1.00   0.00  0.00  0.00  0.17  0.83  0.00  0.00  0.96  0.00
  C18                     1.00   0.00  0.00  0.00  0.86  0.14  0.00  0.00  0.91  0.00
  C19                     1.00   0.00  0.00  0.00  0.95  0.04  0.00  0.00  1.00  0.00
  C2                      1.00   0.00  0.00  0.00  0.44  0.56  0.00  0.00  0.99  0.00
  C20                     1.00   0.00  0.00  0.00  0.41  0.59  0.00  0.00  0.98  0.00
  C21                     1.00   0.00  0.00  0.00  0.00  1.00  0.00  0.00  0.00  0.00
  C22                     1.00   0.00  0.00  0.00  0.97  0.03  0.00  0.00  1.00  0.00
  C23                     1.00   0.00  0.00  0.00  0.83  0.17  0.00  0.00  0.86  0.00
  C3                      1.00   0.00  0.01  0.00  0.10  0.89  0.00  0.00  0.51  0.00
  C4                      1.00   0.00  0.00  0.00  0.85  0.15  0.00  0.00  0.93  0.00
  C5                      1.00   0.00  0.00  0.00  0.64  0.36  0.00  0.00  0.97  0.00
  C6                      1.00   0.00  0.00  0.00  0.02  0.98  0.00  0.00  0.00  0.00
  C7                      1.00   0.00  0.00  0.00  0.85  0.15  0.00  0.00  0.91  0.00
  C8                      1.00   0.00  0.00  0.00  0.08  0.92  0.00  0.00  0.00  0.00
  C9                      1.00   0.00  0.00  0.00  1.00  0.00  0.00  0.00  1.00  0.00
  
  
  *************************
  Conduit Surcharge Summary
  *************************
  
  ----------------------------------------------------------------------------
                                                           Hours        Hours 
                         --------- Hours Full --------   Above Full   Capacity
  Conduit                Both Ends  Upstream  Dnstream   Normal Flow   Limited
  ----------------------------------------------------------------------------
  C10                         0.01      0.01      2.97      0.01         0.01
  C13                         0.01      0.01      2.34      0.01         0.01
  C23                         0.01      0.01      3.55      0.01         0.01
  C4                          0.01      0.01      3.31      0.01         0.01
  C7                          0.01      0.01      2.35      0.01         0.01
  

  Analysis begun on:  Sun Jul 17 21:51:25 2022
  Analysis ended on:  Sun Jul 17 21:51:26 2022
  Total elapsed time: 00:00:01