
  EPA STORM WATER MANAGEMENT MODEL - VERSION 5.1 (Build 5.3.0.dev0)
  --------------------------------------------------------------

  
  *********************************************************
  NOTE: The summary statistics displayed in this report are
  based on results found at every computational time step,  
  not just on results from each reporting time step.
  *********************************************************
  
  ****************
  Analysis Options
  ****************
  Flow Units ............... CMS
  Process Models:
    Rainfall/Runoff ........ YES
    RDII ................... NO
    Snowmelt ............... NO
    Groundwater ............ NO
    Flow Routing ........... YES
    Ponding Allowed ........ NO
    Water Quality .......... NO
  Infiltration Method ...... HORTON
  Flow Routing Method ...... DYNWAVE
  Surcharge Method ......... EXTRAN
  Starting Date ............ 10/01/2009 14:25:00
  Ending Date .............. 10/01/2009 22:25:00
  Antecedent Dry Days ...... 0.0
  Report Time Step ......... 00:05:00
  Wet Time Step ............ 00:05:00
  Dry Time Step ............ 01:00:00
  Routing Time Step ........ 30.00 sec
  Variable Time Step ....... YES
  Maximum Trials ........... 8
  Number of Threads ........ 1
  Head Tolerance ........... 0.001500 m
  
  
  **************************        Volume         Depth
  Runoff Quantity Continuity     hectare-m            mm
  **************************     ---------       -------
  Total Precipitation ......         1.586         8.803
  Evaporation Loss .........         0.000         0.000
  Infiltration Loss ........         0.000         0.000
  Surface Runoff ...........         1.557         8.641
  Final Storage ............         0.035         0.194
  Continuity Error (%) .....        -0.375
  
  
  **************************        Volume        Volume
  Flow Routing Continuity        hectare-m      10^6 ltr
  **************************     ---------     ---------
  Dry Weather Inflow .......         0.262         2.619
  Wet Weather Inflow .......         1.556        15.564
  Groundwater Inflow .......         0.000         0.000
  RDII Inflow ..............         0.000         0.000
  External Inflow ..........         0.000         0.000
  External Outflow .........         0.685         6.853
  Flooding Loss ............         0.301         3.005
  Evaporation Loss .........         0.000         0.000
  Exfiltration Loss ........         0.000         0.000
  Initial Stored Volume ....         0.000         0.000
  Final Stored Volume ......         0.623         6.234
  Continuity Error (%) .....        11.507
  
  
  *************************
  Highest Continuity Errors
  *************************
  Node T2 (36.49%)
  Node T4 (27.33%)
  Node T6 (20.87%)
  Node T3 (19.87%)
  Node T5 (17.42%)
  
  
  ***************************
  Time-Step Critical Elements
  ***************************
  Link C21 (28.17%)
  Link C15 (17.34%)
  Link C8 (3.12%)
  Link C5 (2.48%)
  
  
  ********************************
  Highest Flow Instability Indexes
  ********************************
  Link C3 (3)
  Link C13 (3)
  Link V3 (3)
  Link C23 (2)
  Link C11 (2)
  
  
  *************************
  Routing Time Step Summary
  *************************
  Minimum Time Step           :     0.09 sec
  Average Time Step           :    26.34 sec
  Maximum Time Step           :    30.00 sec
  Percent in Steady State     :     2.60
  Average Iterations per Step :     2.43
  Percent Not Converging      :     2.25
  
  
  ***************************
  Subcatchment Runoff Summary
  ***************************
  
  ------------------------------------------------------------------------------------------------------------------------------
                            Total      Total      Total      Total     Imperv       Perv      Total       Total     Peak  Runoff
                           Precip      Runon       Evap      Infil     Runoff     Runoff     Runoff      Runoff   Runoff   Coeff
  Subcatchment                 mm         mm         mm         mm         mm         mm         mm    10^6 ltr      CMS
  ------------------------------------------------------------------------------------------------------------------------------
  SC01                      12.44       0.00       0.00       0.00      12.37       0.00      12.37        4.08     0.72   0.994
  SC010                     12.44       0.00       0.00       0.00      12.31       0.00      12.31        1.45     0.23   0.989
  SC02                       9.02       0.00       0.00       0.00       8.93       0.00       8.93        2.03     0.53   0.989
  SC03                       3.88       0.00       0.00       0.00       3.81       0.00       3.81        0.69     0.13   0.981
  SC04                       9.02       0.00       0.00       0.00       8.73       0.00       8.73        0.60     0.10   0.968
  SC05                      12.44       0.00       0.00       0.00      12.35       0.00      12.35        1.93     0.33   0.993
  SC06                       8.79       0.00       0.00       0.00       8.45       0.00       8.45        2.75     0.30   0.962
  SC07                       9.02       0.00       0.00       0.00       8.74       0.00       8.74        0.41     0.07   0.969
  SC08                       3.88       0.00       0.00       0.00       3.70       0.00       3.70        1.04     0.17   0.955
  SC09                       8.79       0.00       0.00       0.00       8.62       0.00       8.62        0.59     0.09   0.980
  
  
  ******************
  Node Depth Summary
  ******************
  
  ---------------------------------------------------------------------------------
                                 Average  Maximum  Maximum  Time of Max    Reported
                                   Depth    Depth      HGL   Occurrence   Max Depth
  Node                 Type       Meters   Meters   Meters  days hr:min      Meters
  ---------------------------------------------------------------------------------
  CSO10                JUNCTION     0.24     1.00    31.00     0  00:36        1.00
  CSO7                 JUNCTION     0.14     1.20    35.20     0  04:08        1.20
  CSO8                 JUNCTION     0.11     0.26    32.26     0  01:40        0.25
  CSO9                 JUNCTION     0.13     0.75    40.75     0  00:30        0.75
  J1                   JUNCTION     0.09     0.19    34.19     0  00:40        0.19
  J10                  JUNCTION     0.08     0.17    29.17     0  01:44        0.17
  J11                  JUNCTION     0.09     0.18    31.18     0  01:44        0.18
  J12                  JUNCTION     0.13     0.19    26.19     0  01:30        0.19
  J13                  JUNCTION     0.07     0.20    29.20     0  04:05        0.19
  J14                  JUNCTION     0.11     0.17    20.17     0  05:57        0.16
  J15                  JUNCTION     0.20     0.33    15.33     0  01:08        0.33
  J16                  JUNCTION     0.09     0.21    30.21     0  00:40        0.21
  J17                  JUNCTION     0.05     0.13    20.13     0  04:20        0.13
  J18                  JUNCTION     0.08     0.16    29.16     0  01:11        0.16
  J19                  JUNCTION     0.16     0.17     8.17     0  01:08        0.17
  J2                   JUNCTION     0.07     0.08    25.08     0  05:14        0.08
  J3                   JUNCTION     0.10     0.14    18.14     0  06:25        0.14
  J4                   JUNCTION     0.14     0.89    33.89     0  04:08        0.75
  J5                   JUNCTION     0.07     0.14    32.14     0  04:10        0.14
  J6                   JUNCTION     0.05     0.12    25.12     0  06:20        0.12
  J7                   JUNCTION     0.09     0.19    39.19     0  00:31        0.19
  J8                   JUNCTION     0.12     0.21    36.21     0  00:31        0.21
  J9                   JUNCTION     0.10     0.17    29.17     0  04:07        0.17
  Out_to_WWTP          OUTFALL      0.16     0.17     6.17     0  05:43        0.17
  T1                   STORAGE      4.15     5.00    15.00     0  01:07        5.00
  T2                   STORAGE      2.55     4.60    25.60     0  07:00        4.60
  T3                   STORAGE      1.64     2.96    24.96     0  06:43        2.96
  T4                   STORAGE      2.78     4.99    31.99     0  06:09        4.99
  T5                   STORAGE      4.15     5.00    32.00     0  03:56        5.00
  T6                   STORAGE      4.09     5.00    36.00     0  03:53        5.00
  
  
  *******************
  Node Inflow Summary
  *******************
  
  -------------------------------------------------------------------------------------------------
                                  Maximum  Maximum                  Lateral       Total        Flow
                                  Lateral    Total  Time of Max      Inflow      Inflow     Balance
                                   Inflow   Inflow   Occurrence      Volume      Volume       Error
  Node                 Type           CMS      CMS  days hr:min    10^6 ltr    10^6 ltr     Percent
  -------------------------------------------------------------------------------------------------
  CSO10                JUNCTION     0.230    0.230     0  01:05        1.54        1.54       0.016
  CSO7                 JUNCTION     0.079    0.079     0  04:10       0.612       0.613       0.034
  CSO8                 JUNCTION     0.179    0.179     0  01:40        1.17        1.17       0.015
  CSO9                 JUNCTION     0.092    0.092     0  00:30       0.727       0.727      -0.028
  J1                   JUNCTION     0.344    0.344     0  00:40        2.31        2.31      -0.126
  J10                  JUNCTION     0.144    0.304     0  01:42       0.947        2.12      -0.052
  J11                  JUNCTION     0.000    0.179     0  01:41           0        1.17       0.053
  J12                  JUNCTION     0.000    0.340     0  01:30           0        4.24       0.040
  J13                  JUNCTION     0.543    0.543     0  04:05        2.35        2.35      -0.345
  J14                  JUNCTION     0.000    0.143     0  06:00           0        1.98       0.326
  J15                  JUNCTION     0.000    0.970     0  00:40           0        9.97       0.775
  J16                  JUNCTION     0.732    0.732     0  00:40        4.45        4.46      -0.094
  J17                  JUNCTION     0.000    0.110     0  04:20           0       0.585       2.382
  J18                  JUNCTION     0.000    0.202     0  01:11           0        1.52      -0.037
  J19                  JUNCTION     0.000    0.271     0  01:07           0        6.86       0.163
  J2                   JUNCTION     0.000    0.039     0  03:57           0        1.01       0.499
  J3                   JUNCTION     0.000    0.212     0  06:21           0        3.45       0.687
  J4                   JUNCTION     0.000    0.077     0  04:07           0       0.609       0.184
  J5                   JUNCTION     0.107    0.178     0  04:10       0.689         1.3      -0.046
  J6                   JUNCTION     0.000    0.080     0  06:15           0       0.473       0.521
  J7                   JUNCTION     0.000    0.092     0  00:30           0       0.727       0.264
  J8                   JUNCTION     0.330    0.414     0  00:30        3.39        4.11      -0.106
  J9                   JUNCTION     0.000    0.175     0  03:53           0        2.13       0.305
  Out_to_WWTP          OUTFALL      0.000    0.271     0  01:09           0        6.85       0.000
  T1                   STORAGE      0.000    0.943     0  01:08           0         9.9       6.159
  T2                   STORAGE      0.000    0.536     0  04:06           0        2.36      57.459
  T3                   STORAGE      0.000    0.330     0  01:30           0        4.24      24.794
  T4                   STORAGE      0.000    0.177     0  04:11           0         1.3      37.616
  T5                   STORAGE      0.000    0.342     0  00:40           0        2.31      21.099
  T6                   STORAGE      0.000    0.408     0  00:31           0        4.12      26.374
  
  
  **********************
  Node Surcharge Summary
  **********************
  
  Surcharging occurs when water rises above the top of the highest conduit.
  ---------------------------------------------------------------------
                                               Max. Height   Min. Depth
                                   Hours       Above Crown    Below Rim
  Node                 Type      Surcharged         Meters       Meters
  ---------------------------------------------------------------------
  CSO10                JUNCTION        0.68          0.560        0.000
  CSO7                 JUNCTION        0.35          0.945        0.000
  CSO9                 JUNCTION        0.16          0.431        1.251
  J4                   JUNCTION        0.31          0.587        1.113
  
  
  *********************
  Node Flooding Summary
  *********************
  
  Flooding refers to all water that overflows a node, whether it ponds or not.
  --------------------------------------------------------------------------
                                                             Total   Maximum
                                 Maximum   Time of Max       Flood    Ponded
                        Hours       Rate    Occurrence      Volume     Depth
  Node                 Flooded       CMS   days hr:min    10^6 ltr    Meters
  --------------------------------------------------------------------------
  CSO10                   0.41     0.028      0  01:05       0.022     0.000
  CSO7                    0.16     0.008      0  04:10       0.003     0.000
  T1                      2.28     0.672      0  01:08       1.951     0.000
  T5                      1.82     0.130      0  04:06       0.487     0.000
  T6                      1.32     0.308      0  04:00       0.540     0.000
  
  
  **********************
  Storage Volume Summary
  **********************
  
  --------------------------------------------------------------------------------------------------
                         Average     Avg  Evap Exfil       Maximum     Max    Time of Max    Maximum
                          Volume    Pcnt  Pcnt  Pcnt        Volume    Pcnt     Occurrence    Outflow
  Storage Unit           1000 m3    Full  Loss  Loss       1000 m3    Full    days hr:min        CMS
  --------------------------------------------------------------------------------------------------
  T1                       0.581      83     0     0         0.700     100       0  01:07      0.271
  T2                       0.510      51     0     0         0.921      92       0  07:00      0.110
  T3                       0.854      33     0     0         1.538      59       0  06:43      0.143
  T4                       0.278      56     0     0         0.499     100       0  06:09      0.080
  T5                       0.415      83     0     0         0.500     100       0  03:56      0.039
  T6                       0.490      82     0     0         0.600     100       0  03:53      0.175
  
  
  ***********************
  Outfall Loading Summary
  ***********************
  
  -----------------------------------------------------------
                         Flow       Avg       Max       Total
                         Freq      Flow      Flow      Volume
  Outfall Node           Pcnt       CMS       CMS    10^6 ltr
  -----------------------------------------------------------
  Out_to_WWTP           98.99     0.239     0.271       6.853
  -----------------------------------------------------------
  System                98.99     0.239     0.271       6.853
  
  
  ********************
  Link Flow Summary
  ********************
  
  -----------------------------------------------------------------------------
                                 Maximum  Time of Max   Maximum    Max/    Max/
                                  |Flow|   Occurrence   |Veloc|    Full    Full
  Link                 Type          CMS  days hr:min     m/sec    Flow   Depth
  -----------------------------------------------------------------------------
  C1                   CONDUIT     0.039     0  04:37      1.14    0.01    0.11
  C10                  CONDUIT     0.408     0  00:31      1.69    0.04    0.57
  C11                  CONDUIT     0.211     0  06:25      1.82    0.01    0.11
  C12                  CONDUIT     0.178     0  04:10      1.64    0.01    0.09
  C13                  CONDUIT     0.330     0  01:30      1.75    0.02    0.54
  C14                  CONDUIT     0.271     0  01:09      2.08    0.02    0.09
  C15                  CONDUIT     0.179     0  01:41      2.36    0.57    0.48
  C16                  CONDUIT     0.172     0  01:44      1.28    0.02    0.09
  C17                  CONDUIT     0.300     0  01:44      2.17    0.01    0.09
  C18                  CONDUIT     0.536     0  04:06      3.22    0.02    0.55
  C19                  CONDUIT     0.109     0  04:20      1.22    0.04    0.20
  C2                   CONDUIT     0.079     0  06:21      1.73    0.09    0.22
  C20                  CONDUIT     0.726     0  00:40      3.53    0.02    0.13
  C21                  CONDUIT     0.202     0  01:11      1.83    1.16    0.69
  C22                  CONDUIT     0.202     0  01:11      1.63    0.09    0.31
  C23                  CONDUIT     0.943     0  01:08      2.32    0.10    0.61
  C3                   CONDUIT     0.144     0  05:58      1.99    0.06    0.15
  C4                   CONDUIT     0.342     0  00:40      2.44    0.08    0.60
  C5                   CONDUIT     0.077     0  04:07      1.51    1.32    1.00
  C6                   CONDUIT     0.071     0  04:09      1.28    1.12    0.74
  C7                   CONDUIT     0.177     0  04:11      1.47    0.04    0.57
  C8                   CONDUIT     0.092     0  00:30      1.36    1.16    0.80
  C9                   CONDUIT     0.088     0  00:31      1.21    0.30    0.40
  V1                   ORIFICE     0.271     0  01:07                      1.00
  V2                   ORIFICE     0.110     0  04:20                      1.00
  V3                   ORIFICE     0.143     0  06:00                      1.00
  V4                   ORIFICE     0.080     0  06:15                      1.00
  V5                   ORIFICE     0.039     0  03:57                      1.00
  V6                   ORIFICE     0.175     0  03:53                      1.00
  
  
  ***************************
  Flow Classification Summary
  ***************************
  
  -------------------------------------------------------------------------------------
                      Adjusted    ---------- Fraction of Time in Flow Class ---------- 
                       /Actual         Up    Down  Sub   Sup   Up    Down  Norm  Inlet 
  Conduit               Length    Dry  Dry   Dry   Crit  Crit  Crit  Crit  Ltd   Ctrl  
  -------------------------------------------------------------------------------------
  C1                      1.00   0.00  0.00  0.00  0.02  0.97  0.00  0.00  0.95  0.00
  C10                     1.00   0.00  0.00  0.00  0.96  0.04  0.00  0.00  0.98  0.00
  C11                     1.00   0.00  0.00  0.00  0.43  0.57  0.00  0.00  1.00  0.00
  C12                     1.00   0.00  0.00  0.00  0.46  0.54  0.00  0.00  0.84  0.00
  C13                     1.00   0.00  0.00  0.00  0.87  0.13  0.00  0.00  0.91  0.00
  C14                     1.00   0.01  0.00  0.00  0.01  0.98  0.00  0.00  0.35  0.00
  C15                     1.00   0.00  0.00  0.00  0.00  1.00  0.00  0.00  0.02  0.00
  C16                     1.00   0.00  0.00  0.00  0.40  0.60  0.00  0.00  0.44  0.00
  C17                     1.00   0.00  0.00  0.00  0.29  0.71  0.00  0.00  0.97  0.00
  C18                     1.00   0.00  0.00  0.00  0.89  0.11  0.00  0.00  0.97  0.00
  C19                     1.00   0.00  0.00  0.00  0.99  0.01  0.00  0.00  1.00  0.00
  C2                      1.00   0.00  0.00  0.00  0.68  0.32  0.00  0.00  0.96  0.00
  C20                     1.00   0.00  0.00  0.00  0.46  0.54  0.00  0.00  0.98  0.00
  C21                     1.00   0.00  0.00  0.00  0.01  0.99  0.00  0.00  0.00  0.00
  C22                     1.00   0.00  0.00  0.00  0.70  0.30  0.00  0.00  1.00  0.00
  C23                     1.00   0.00  0.00  0.00  0.94  0.06  0.00  0.00  0.94  0.00
  C3                      1.00   0.00  0.00  0.00  0.05  0.94  0.00  0.00  0.40  0.00
  C4                      1.00   0.00  0.00  0.00  0.94  0.06  0.00  0.00  0.98  0.00
  C5                      1.00   0.00  0.00  0.00  0.88  0.12  0.00  0.00  0.92  0.00
  C6                      1.00   0.00  0.00  0.00  0.07  0.93  0.00  0.00  0.00  0.00
  C7                      1.00   0.00  0.00  0.00  0.92  0.08  0.00  0.00  0.97  0.00
  C8                      1.00   0.00  0.00  0.00  0.19  0.81  0.00  0.00  0.00  0.00
  C9                      1.00   0.00  0.00  0.00  0.98  0.02  0.00  0.00  1.00  0.00
  
  
  *************************
  Conduit Surcharge Summary
  *************************
  
  ----------------------------------------------------------------------------
                                                           Hours        Hours 
                         --------- Hours Full --------   Above Full   Capacity
  Conduit                Both Ends  Upstream  Dnstream   Normal Flow   Limited
  ----------------------------------------------------------------------------
  C10                         0.01      0.01      7.29      0.01         0.01
  C13                         0.01      0.01      3.15      0.01         0.01
  C18                         0.01      0.01      3.96      0.01         0.01
  C21                         0.01      0.68      0.01      0.68         0.01
  C23                         0.01      0.01      7.32      0.01         0.01
  C4                          0.01      0.01      7.38      0.01         0.01
  C5                          0.31      0.35      0.42      0.35         0.28
  C6                          0.01      0.31      0.01      0.20         0.01
  C7                          0.01      0.01      6.59      0.01         0.01
  C8                          0.01      0.16      0.01      0.16         0.01
  

  Analysis begun on:  Mon Mar  7 20:03:51 2022
  Analysis ended on:  Mon Mar  7 20:03:52 2022
  Total elapsed time: 00:00:01