
  EPA STORM WATER MANAGEMENT MODEL - VERSION 5.1 (Build 5.3.0.dev0)
  --------------------------------------------------------------

  
  *********************************************************
  NOTE: The summary statistics displayed in this report are
  based on results found at every computational time step,  
  not just on results from each reporting time step.
  *********************************************************
  
  ****************
  Analysis Options
  ****************
  Flow Units ............... CMS
  Process Models:
    Rainfall/Runoff ........ YES
    RDII ................... NO
    Snowmelt ............... NO
    Groundwater ............ NO
    Flow Routing ........... YES
    Ponding Allowed ........ NO
    Water Quality .......... NO
  Infiltration Method ...... HORTON
  Flow Routing Method ...... DYNWAVE
  Surcharge Method ......... EXTRAN
  Starting Date ............ 04/10/2007 02:10:00
  Ending Date .............. 04/10/2007 15:10:00
  Antecedent Dry Days ...... 0.0
  Report Time Step ......... 00:05:00
  Wet Time Step ............ 00:05:00
  Dry Time Step ............ 01:00:00
  Routing Time Step ........ 30.00 sec
  Variable Time Step ....... YES
  Maximum Trials ........... 8
  Number of Threads ........ 1
  Head Tolerance ........... 0.001500 m
  
  
  **************************        Volume         Depth
  Runoff Quantity Continuity     hectare-m            mm
  **************************     ---------       -------
  Total Precipitation ......         1.081         5.999
  Evaporation Loss .........         0.000         0.000
  Infiltration Loss ........         0.000         0.000
  Surface Runoff ...........         1.054         5.852
  Final Storage ............         0.027         0.153
  Continuity Error (%) .....        -0.084
  
  
  **************************        Volume        Volume
  Flow Routing Continuity        hectare-m      10^6 ltr
  **************************     ---------     ---------
  Dry Weather Inflow .......         0.507         5.067
  Wet Weather Inflow .......         1.054        10.541
  Groundwater Inflow .......         0.000         0.000
  RDII Inflow ..............         0.000         0.000
  External Inflow ..........         0.000         0.000
  External Outflow .........         0.841         8.406
  Flooding Loss ............         0.000         0.000
  Evaporation Loss .........         0.000         0.000
  Exfiltration Loss ........         0.000         0.000
  Initial Stored Volume ....         0.000         0.000
  Final Stored Volume ......         0.572         5.717
  Continuity Error (%) .....         9.507
  
  
  *************************
  Highest Continuity Errors
  *************************
  Node T2 (29.32%)
  Node T6 (20.88%)
  Node T3 (17.72%)
  Node T5 (17.64%)
  Node T4 (17.26%)
  
  
  ***************************
  Time-Step Critical Elements
  ***************************
  Link C15 (33.62%)
  
  
  ********************************
  Highest Flow Instability Indexes
  ********************************
  Link C20 (3)
  Link C15 (3)
  Link C23 (3)
  Link C18 (2)
  Link C13 (2)
  
  
  *************************
  Routing Time Step Summary
  *************************
  Minimum Time Step           :     0.17 sec
  Average Time Step           :    28.50 sec
  Maximum Time Step           :    30.00 sec
  Percent in Steady State     :     3.91
  Average Iterations per Step :     2.03
  Percent Not Converging      :     0.00
  
  
  ***************************
  Subcatchment Runoff Summary
  ***************************
  
  ------------------------------------------------------------------------------------------------------------------------------
                            Total      Total      Total      Total     Imperv       Perv      Total       Total     Peak  Runoff
                           Precip      Runon       Evap      Infil     Runoff     Runoff     Runoff      Runoff   Runoff   Coeff
  Subcatchment                 mm         mm         mm         mm         mm         mm         mm    10^6 ltr      CMS
  ------------------------------------------------------------------------------------------------------------------------------
  SC01                       6.04       0.00       0.00       0.00       5.95       0.00       5.95        1.96     0.12   0.985
  SC010                      6.04       0.00       0.00       0.00       5.92       0.00       5.92        0.70     0.04   0.980
  SC02                       6.03       0.00       0.00       0.00       5.93       0.00       5.93        1.35     0.09   0.983
  SC03                       5.51       0.00       0.00       0.00       5.43       0.00       5.43        0.98     0.06   0.986
  SC04                       6.03       0.00       0.00       0.00       5.81       0.00       5.81        0.40     0.02   0.964
  SC05                       6.04       0.00       0.00       0.00       5.94       0.00       5.94        0.93     0.06   0.984
  SC06                       6.48       0.00       0.00       0.00       6.20       0.00       6.20        2.02     0.09   0.957
  SC07                       6.03       0.00       0.00       0.00       5.82       0.00       5.82        0.28     0.02   0.964
  SC08                       5.51       0.00       0.00       0.00       5.36       0.00       5.36        1.50     0.09   0.973
  SC09                       6.48       0.00       0.00       0.00       6.31       0.00       6.31        0.44     0.03   0.973
  
  
  ******************
  Node Depth Summary
  ******************
  
  ---------------------------------------------------------------------------------
                                 Average  Maximum  Maximum  Time of Max    Reported
                                   Depth    Depth      HGL   Occurrence   Max Depth
  Node                 Type       Meters   Meters   Meters  days hr:min      Meters
  ---------------------------------------------------------------------------------
  CSO10                JUNCTION     0.10     0.16    30.16     0  01:25        0.16
  CSO7                 JUNCTION     0.08     0.12    34.12     0  07:10        0.12
  CSO8                 JUNCTION     0.11     0.18    32.18     0  08:15        0.18
  CSO9                 JUNCTION     0.09     0.13    40.13     0  01:25        0.13
  J1                   JUNCTION     0.06     0.09    34.09     0  06:56        0.09
  J10                  JUNCTION     0.08     0.13    29.13     0  08:17        0.13
  J11                  JUNCTION     0.09     0.14    31.14     0  08:17        0.14
  J12                  JUNCTION     0.12     0.18    26.18     0  08:21        0.18
  J13                  JUNCTION     0.06     0.09    29.09     0  07:10        0.09
  J14                  JUNCTION     0.11     0.17    20.17     0  10:12        0.17
  J15                  JUNCTION     0.15     0.20    15.20     0  07:11        0.20
  J16                  JUNCTION     0.06     0.09    30.09     0  01:25        0.09
  J17                  JUNCTION     0.05     0.13    20.13     0  10:10        0.13
  J18                  JUNCTION     0.05     0.07    29.07     0  01:27        0.07
  J19                  JUNCTION     0.14     0.17     8.17     0  08:37        0.17
  J2                   JUNCTION     0.06     0.07    25.07     0  10:32        0.07
  J3                   JUNCTION     0.10     0.14    18.14     0  10:20        0.14
  J4                   JUNCTION     0.10     0.14    33.14     0  07:15        0.14
  J5                   JUNCTION     0.06     0.08    32.08     0  07:14        0.08
  J6                   JUNCTION     0.05     0.09    25.09     0  07:20        0.09
  J7                   JUNCTION     0.07     0.10    39.10     0  07:27        0.10
  J8                   JUNCTION     0.10     0.13    36.13     0  07:26        0.13
  J9                   JUNCTION     0.09     0.13    29.13     0  08:35        0.13
  Out_to_WWTP          OUTFALL      0.14     0.17     6.17     0  08:37        0.17
  T1                   STORAGE      2.56     4.40    14.40     0  08:36        4.39
  T2                   STORAGE      1.74     2.93    23.93     0  11:13        2.93
  T3                   STORAGE      1.76     3.41    25.41     0  13:00        3.41
  T4                   STORAGE      1.51     2.80    29.80     0  11:34        2.80
  T5                   STORAGE      1.97     3.18    30.18     0  10:30        3.18
  T6                   STORAGE      1.90     4.59    35.59     0  13:00        4.59
  
  
  *******************
  Node Inflow Summary
  *******************
  
  -------------------------------------------------------------------------------------------------
                                  Maximum  Maximum                  Lateral       Total        Flow
                                  Lateral    Total  Time of Max      Inflow      Inflow     Balance
                                   Inflow   Inflow   Occurrence      Volume      Volume       Error
  Node                 Type           CMS      CMS  days hr:min    10^6 ltr    10^6 ltr     Percent
  -------------------------------------------------------------------------------------------------
  CSO10                JUNCTION     0.041    0.041     0  01:25       0.875       0.876      -0.041
  CSO7                 JUNCTION     0.025    0.025     0  07:10       0.651       0.651      -0.114
  CSO8                 JUNCTION     0.099    0.099     0  08:15        1.84        1.85       0.015
  CSO9                 JUNCTION     0.027    0.027     0  01:25       0.688       0.688      -0.045
  J1                   JUNCTION     0.066    0.066     0  06:55        1.65        1.65      -0.168
  J10                  JUNCTION     0.075    0.172     0  08:15        1.47        3.32       0.053
  J11                  JUNCTION     0.000    0.099     0  08:15           0        1.85       0.217
  J12                  JUNCTION     0.000    0.281     0  08:18           0        5.86       0.180
  J13                  JUNCTION     0.107    0.107     0  07:10        1.95        1.95      -0.264
  J14                  JUNCTION     0.000    0.151     0  10:10           0        3.04       0.166
  J15                  JUNCTION     0.000    0.348     0  06:57           0        9.17       0.616
  J16                  JUNCTION     0.123    0.123     0  01:25        2.68        2.68      -0.103
  J17                  JUNCTION     0.000    0.107     0  10:05           0       0.818       0.587
  J18                  JUNCTION     0.000    0.040     0  01:25           0       0.876       0.048
  J19                  JUNCTION     0.000    0.254     0  08:36           0        8.42       0.111
  J2                   JUNCTION     0.000    0.031     0  10:30           0        1.08       0.429
  J3                   JUNCTION     0.000    0.205     0  10:13           0        4.84       0.935
  J4                   JUNCTION     0.000    0.025     0  07:11           0       0.652       0.499
  J5                   JUNCTION     0.027    0.051     0  07:13       0.565        1.21       0.053
  J6                   JUNCTION     0.000    0.042     0  07:20           0       0.737       0.453
  J7                   JUNCTION     0.000    0.027     0  01:25           0       0.689       0.426
  J8                   JUNCTION     0.119    0.145     0  07:25        3.23        3.92       0.017
  J9                   JUNCTION     0.000    0.115     0  08:44           0        2.55       0.289
  Out_to_WWTP          OUTFALL      0.000    0.254     0  08:37           0        8.41       0.000
  T1                   STORAGE      0.000    0.346     0  07:11           0        9.11       3.977
  T2                   STORAGE      0.000    0.106     0  07:11           0        1.96      41.488
  T3                   STORAGE      0.000    0.280     0  08:22           0        5.85      21.530
  T4                   STORAGE      0.000    0.051     0  07:15           0        1.21      20.865
  T5                   STORAGE      0.000    0.066     0  06:56           0        1.66      21.412
  T6                   STORAGE      0.000    0.145     0  07:26           0        3.92      26.382
  
  
  **********************
  Node Surcharge Summary
  **********************
  
  No nodes were surcharged.
  
  
  *********************
  Node Flooding Summary
  *********************
  
  No nodes were flooded.
  
  
  **********************
  Storage Volume Summary
  **********************
  
  --------------------------------------------------------------------------------------------------
                         Average     Avg  Evap Exfil       Maximum     Max    Time of Max    Maximum
                          Volume    Pcnt  Pcnt  Pcnt        Volume    Pcnt     Occurrence    Outflow
  Storage Unit           1000 m3    Full  Loss  Loss       1000 m3    Full    days hr:min        CMS
  --------------------------------------------------------------------------------------------------
  T1                       0.358      51     0     0         0.616      88       0  08:36      0.254
  T2                       0.348      35     0     0         0.587      59       0  11:13      0.107
  T3                       0.913      35     0     0         1.775      68       0  13:00      0.151
  T4                       0.151      30     0     0         0.280      56       0  11:34      0.042
  T5                       0.197      39     0     0         0.318      64       0  10:30      0.031
  T6                       0.228      38     0     0         0.550      92       0  13:00      0.115
  
  
  ***********************
  Outfall Loading Summary
  ***********************
  
  -----------------------------------------------------------
                         Flow       Avg       Max       Total
                         Freq      Flow      Flow      Volume
  Outfall Node           Pcnt       CMS       CMS    10^6 ltr
  -----------------------------------------------------------
  Out_to_WWTP           98.78     0.184     0.254       8.406
  -----------------------------------------------------------
  System                98.78     0.184     0.254       8.406
  
  
  ********************
  Link Flow Summary
  ********************
  
  -----------------------------------------------------------------------------
                                 Maximum  Time of Max   Maximum    Max/    Max/
                                  |Flow|   Occurrence   |Veloc|    Full    Full
  Link                 Type          CMS  days hr:min     m/sec    Flow   Depth
  -----------------------------------------------------------------------------
  C1                   CONDUIT     0.031     0  10:32      1.00    0.01    0.11
  C10                  CONDUIT     0.145     0  07:26      2.35    0.01    0.54
  C11                  CONDUIT     0.202     0  10:20      1.74    0.01    0.08
  C12                  CONDUIT     0.112     0  08:35      1.16    0.01    0.08
  C13                  CONDUIT     0.280     0  08:22      1.73    0.02    0.54
  C14                  CONDUIT     0.254     0  08:37      2.04    0.01    0.08
  C15                  CONDUIT     0.099     0  08:15      1.96    0.31    0.35
  C16                  CONDUIT     0.098     0  08:18      1.07    0.01    0.07
  C17                  CONDUIT     0.171     0  08:17      1.58    0.01    0.08
  C18                  CONDUIT     0.106     0  07:11      1.48    0.00    0.52
  C19                  CONDUIT     0.104     0  10:10      1.45    0.04    0.15
  C2                   CONDUIT     0.041     0  07:20      1.17    0.05    0.18
  C20                  CONDUIT     0.123     0  01:25      2.00    0.00    0.07
  C21                  CONDUIT     0.040     0  01:25      1.26    0.23    0.26
  C22                  CONDUIT     0.040     0  01:27      0.88    0.02    0.17
  C23                  CONDUIT     0.346     0  07:11      1.65    0.04    0.57
  C3                   CONDUIT     0.154     0  10:13      2.10    0.06    0.15
  C4                   CONDUIT     0.066     0  06:56      1.43    0.02    0.54
  C5                   CONDUIT     0.025     0  07:11      1.24    0.43    0.50
  C6                   CONDUIT     0.025     0  07:15      1.05    0.39    0.36
  C7                   CONDUIT     0.051     0  07:15      1.23    0.01    0.54
  C8                   CONDUIT     0.027     0  01:25      1.74    0.33    0.36
  C9                   CONDUIT     0.026     0  07:27      0.81    0.09    0.23
  V1                   ORIFICE     0.254     0  08:36                      1.00
  V2                   ORIFICE     0.107     0  10:05                      1.00
  V3                   ORIFICE     0.151     0  10:10                      1.00
  V4                   ORIFICE     0.042     0  07:20                      1.00
  V5                   ORIFICE     0.031     0  10:30                      1.00
  V6                   ORIFICE     0.115     0  08:44                      1.00
  
  
  ***************************
  Flow Classification Summary
  ***************************
  
  -------------------------------------------------------------------------------------
                      Adjusted    ---------- Fraction of Time in Flow Class ---------- 
                       /Actual         Up    Down  Sub   Sup   Up    Down  Norm  Inlet 
  Conduit               Length    Dry  Dry   Dry   Crit  Crit  Crit  Crit  Ltd   Ctrl  
  -------------------------------------------------------------------------------------
  C1                      1.00   0.00  0.00  0.00  0.50  0.50  0.00  0.00  0.93  0.00
  C10                     1.00   0.00  0.00  0.00  0.93  0.07  0.00  0.00  0.95  0.00
  C11                     1.00   0.00  0.00  0.00  0.13  0.87  0.00  0.00  1.00  0.00
  C12                     1.00   0.00  0.00  0.00  0.59  0.41  0.00  0.00  0.95  0.00
  C13                     1.00   0.00  0.00  0.00  0.91  0.09  0.00  0.00  0.92  0.00
  C14                     1.00   0.01  0.00  0.00  0.01  0.98  0.00  0.00  0.55  0.00
  C15                     1.00   0.02  0.00  0.00  0.01  0.97  0.00  0.00  0.00  0.00
  C16                     1.00   0.00  0.02  0.00  0.31  0.67  0.00  0.00  0.18  0.00
  C17                     1.00   0.00  0.00  0.00  0.15  0.85  0.00  0.00  0.99  0.00
  C18                     1.00   0.00  0.00  0.00  0.93  0.07  0.00  0.00  0.95  0.00
  C19                     1.00   0.00  0.00  0.00  0.99  0.01  0.00  0.00  1.00  0.00
  C2                      1.00   0.00  0.00  0.00  0.51  0.49  0.00  0.00  0.99  0.00
  C20                     1.00   0.00  0.00  0.00  0.51  0.49  0.00  0.00  0.99  0.00
  C21                     1.00   0.00  0.00  0.00  0.00  1.00  0.00  0.00  0.00  0.00
  C22                     1.00   0.00  0.00  0.00  0.96  0.03  0.00  0.00  1.00  0.00
  C23                     1.00   0.00  0.00  0.00  0.93  0.07  0.00  0.00  0.94  0.00
  C3                      1.00   0.00  0.00  0.00  0.05  0.94  0.00  0.00  0.45  0.00
  C4                      1.00   0.00  0.00  0.00  0.94  0.06  0.00  0.00  0.95  0.00
  C5                      1.00   0.00  0.00  0.00  0.88  0.12  0.00  0.00  0.98  0.00
  C6                      1.00   0.00  0.00  0.00  0.02  0.98  0.00  0.00  0.00  0.00
  C7                      1.00   0.00  0.00  0.00  0.93  0.07  0.00  0.00  0.94  0.00
  C8                      1.00   0.00  0.00  0.00  0.00  1.00  0.00  0.00  0.00  0.00
  C9                      1.00   0.00  0.00  0.00  1.00  0.00  0.00  0.00  1.00  0.00
  
  
  *************************
  Conduit Surcharge Summary
  *************************
  
  ----------------------------------------------------------------------------
                                                           Hours        Hours 
                         --------- Hours Full --------   Above Full   Capacity
  Conduit                Both Ends  Upstream  Dnstream   Normal Flow   Limited
  ----------------------------------------------------------------------------
  C10                         0.01      0.01      5.79      0.01         0.01
  C13                         0.01      0.01      5.23      0.01         0.01
  C18                         0.01      0.01      5.54      0.01         0.01
  C23                         0.01      0.01     10.78      0.01         0.01
  C4                          0.01      0.01     10.67      0.01         0.01
  C7                          0.01      0.01      8.11      0.01         0.01
  

  Analysis begun on:  Sun Jul 17 19:50:59 2022
  Analysis ended on:  Sun Jul 17 19:51:03 2022
  Total elapsed time: 00:00:04