
  EPA STORM WATER MANAGEMENT MODEL - VERSION 5.1 (Build 5.3.0.dev0)
  --------------------------------------------------------------

  
  *********************************************************
  NOTE: The summary statistics displayed in this report are
  based on results found at every computational time step,  
  not just on results from each reporting time step.
  *********************************************************
  
  ****************
  Analysis Options
  ****************
  Flow Units ............... CMS
  Process Models:
    Rainfall/Runoff ........ YES
    RDII ................... NO
    Snowmelt ............... NO
    Groundwater ............ NO
    Flow Routing ........... YES
    Ponding Allowed ........ NO
    Water Quality .......... NO
  Infiltration Method ...... HORTON
  Flow Routing Method ...... DYNWAVE
  Surcharge Method ......... EXTRAN
  Starting Date ............ 10/10/2008 14:45:00
  Ending Date .............. 10/11/2008 05:15:00
  Antecedent Dry Days ...... 0.0
  Report Time Step ......... 00:05:00
  Wet Time Step ............ 00:05:00
  Dry Time Step ............ 01:00:00
  Routing Time Step ........ 30.00 sec
  Variable Time Step ....... YES
  Maximum Trials ........... 8
  Number of Threads ........ 1
  Head Tolerance ........... 0.001500 m
  
  
  **************************        Volume         Depth
  Runoff Quantity Continuity     hectare-m            mm
  **************************     ---------       -------
  Total Precipitation ......         1.566         8.693
  Evaporation Loss .........         0.000         0.000
  Infiltration Loss ........         0.000         0.000
  Surface Runoff ...........         1.536         8.523
  Final Storage ............         0.036         0.199
  Continuity Error (%) .....        -0.340
  
  
  **************************        Volume        Volume
  Flow Routing Continuity        hectare-m      10^6 ltr
  **************************     ---------     ---------
  Dry Weather Inflow .......         0.309         3.093
  Wet Weather Inflow .......         1.536        15.359
  Groundwater Inflow .......         0.000         0.000
  RDII Inflow ..............         0.000         0.000
  External Inflow ..........         0.000         0.000
  External Outflow .........         0.998         9.978
  Flooding Loss ............         0.023         0.226
  Evaporation Loss .........         0.000         0.000
  Exfiltration Loss ........         0.000         0.000
  Initial Stored Volume ....         0.000         0.000
  Final Stored Volume ......         0.651         6.512
  Continuity Error (%) .....         9.410
  
  
  *************************
  Highest Continuity Errors
  *************************
  Node T2 (28.16%)
  Node T6 (20.33%)
  Node T3 (17.46%)
  Node T5 (14.76%)
  Node T4 (9.31%)
  
  
  ***************************
  Time-Step Critical Elements
  ***************************
  Link C15 (43.15%)
  Link C21 (1.14%)
  
  
  ********************************
  Highest Flow Instability Indexes
  ********************************
  Link C13 (5)
  Link C12 (2)
  Link V6 (2)
  Link C3 (2)
  Link V3 (2)
  
  
  *************************
  Routing Time Step Summary
  *************************
  Minimum Time Step           :     0.17 sec
  Average Time Step           :    27.06 sec
  Maximum Time Step           :    30.00 sec
  Percent in Steady State     :     1.67
  Average Iterations per Step :     2.04
  Percent Not Converging      :     0.00
  
  
  ***************************
  Subcatchment Runoff Summary
  ***************************
  
  ------------------------------------------------------------------------------------------------------------------------------
                            Total      Total      Total      Total     Imperv       Perv      Total       Total     Peak  Runoff
                           Precip      Runon       Evap      Infil     Runoff     Runoff     Runoff      Runoff   Runoff   Coeff
  Subcatchment                 mm         mm         mm         mm         mm         mm         mm    10^6 ltr      CMS
  ------------------------------------------------------------------------------------------------------------------------------
  SC01                       8.48       0.00       0.00       0.00       8.38       0.00       8.38        2.77     0.33   0.989
  SC010                      8.48       0.00       0.00       0.00       8.33       0.00       8.33        0.98     0.10   0.983
  SC02                       8.22       0.00       0.00       0.00       8.10       0.00       8.10        1.84     0.19   0.986
  SC03                       9.73       0.00       0.00       0.00       9.71       0.00       9.71        1.75     0.38   0.998
  SC04                       8.22       0.00       0.00       0.00       7.93       0.00       7.93        0.55     0.04   0.965
  SC05                       8.48       0.00       0.00       0.00       8.37       0.00       8.37        1.31     0.15   0.987
  SC06                       8.22       0.00       0.00       0.00       7.84       0.00       7.84        2.55     0.16   0.954
  SC07                       8.22       0.00       0.00       0.00       7.93       0.00       7.93        0.38     0.03   0.965
  SC08                       9.73       0.00       0.00       0.00       9.59       0.00       9.59        2.68     0.30   0.985
  SC09                       8.22       0.00       0.00       0.00       8.01       0.00       8.01        0.55     0.04   0.975
  
  
  ******************
  Node Depth Summary
  ******************
  
  ---------------------------------------------------------------------------------
                                 Average  Maximum  Maximum  Time of Max    Reported
                                   Depth    Depth      HGL   Occurrence   Max Depth
  Node                 Type       Meters   Meters   Meters  days hr:min      Meters
  ---------------------------------------------------------------------------------
  CSO10                JUNCTION     0.11     0.27    30.27     0  05:20        0.27
  CSO7                 JUNCTION     0.08     0.15    34.15     0  05:15        0.15
  CSO8                 JUNCTION     0.13     0.40    32.40     0  00:25        0.37
  CSO9                 JUNCTION     0.09     0.17    40.17     0  11:30        0.17
  J1                   JUNCTION     0.06     0.13    34.13     0  05:20        0.13
  J10                  JUNCTION     0.09     0.23    29.23     0  00:28        0.22
  J11                  JUNCTION     0.10     0.22    31.22     0  00:29        0.22
  J12                  JUNCTION     0.19     0.54    26.54     0  12:59        0.54
  J13                  JUNCTION     0.06     0.12    29.12     0  05:10        0.12
  J14                  JUNCTION     0.11     0.18    20.18     0  11:07        0.18
  J15                  JUNCTION     0.15     0.25    15.25     0  05:22        0.25
  J16                  JUNCTION     0.06     0.14    30.14     0  05:20        0.14
  J17                  JUNCTION     0.05     0.11    20.11     0  09:12        0.11
  J18                  JUNCTION     0.05     0.12    29.12     0  05:21        0.11
  J19                  JUNCTION     0.14     0.17     8.17     0  11:18        0.17
  J2                   JUNCTION     0.06     0.07    25.07     0  12:07        0.07
  J3                   JUNCTION     0.10     0.15    18.15     0  11:25        0.15
  J4                   JUNCTION     0.09     0.18    33.18     0  05:25        0.18
  J5                   JUNCTION     0.05     0.10    32.10     0  05:23        0.10
  J6                   JUNCTION     0.06     0.09    25.09     0  11:03        0.09
  J7                   JUNCTION     0.07     0.12    39.12     0  11:33        0.12
  J8                   JUNCTION     0.09     0.15    36.15     0  11:33        0.15
  J9                   JUNCTION     0.09     0.15    29.15     0  12:20        0.15
  Out_to_WWTP          OUTFALL      0.14     0.17     6.17     0  11:16        0.17
  T1                   STORAGE      2.82     5.00    15.00     0  11:17        5.00
  T2                   STORAGE      1.60     3.35    24.35     0  12:50        3.35
  T3                   STORAGE      2.75     4.54    26.54     0  13:04        4.54
  T4                   STORAGE      1.01     1.55    28.55     0  06:58        1.55
  T5                   STORAGE      2.02     3.21    30.21     0  12:05        3.21
  T6                   STORAGE      2.33     4.49    35.49     0  14:30        4.49
  
  
  *******************
  Node Inflow Summary
  *******************
  
  -------------------------------------------------------------------------------------------------
                                  Maximum  Maximum                  Lateral       Total        Flow
                                  Lateral    Total  Time of Max      Inflow      Inflow     Balance
                                   Inflow   Inflow   Occurrence      Volume      Volume       Error
  Node                 Type           CMS      CMS  days hr:min    10^6 ltr    10^6 ltr     Percent
  -------------------------------------------------------------------------------------------------
  CSO10                JUNCTION     0.105    0.105     0  05:20        1.09        1.09       0.035
  CSO7                 JUNCTION     0.037    0.037     0  05:15       0.612       0.613       0.049
  CSO8                 JUNCTION     0.313    0.313     0  00:25        2.81        2.81       0.013
  CSO9                 JUNCTION     0.041    0.041     0  11:30       0.712       0.712       0.038
  J1                   JUNCTION     0.162    0.162     0  05:20        1.76        1.76      -0.008
  J10                  JUNCTION     0.386    0.560     0  00:26        2.06        4.86      -0.078
  J11                  JUNCTION     0.000    0.311     0  00:25           0        2.81       0.076
  J12                  JUNCTION     0.000    0.586     0  00:28           0        7.68       4.152
  J13                  JUNCTION     0.199    0.199     0  05:10        2.22        2.22      -0.154
  J14                  JUNCTION     0.000    0.166     0  11:25           0        3.61       0.076
  J15                  JUNCTION     0.000    0.587     0  05:20           0        11.1       0.468
  J16                  JUNCTION     0.339    0.339     0  05:20        3.22        3.22       0.003
  J17                  JUNCTION     0.000    0.082     0  09:05           0       0.977       0.411
  J18                  JUNCTION     0.000    0.104     0  05:20           0        1.09       0.099
  J19                  JUNCTION     0.000    0.271     0  11:17           0        9.99       0.103
  J2                   JUNCTION     0.000    0.031     0  12:05           0        1.25       0.353
  J3                   JUNCTION     0.000    0.238     0  11:08           0        5.86       0.163
  J4                   JUNCTION     0.000    0.037     0  05:15           0       0.612       0.485
  J5                   JUNCTION     0.046    0.082     0  05:22       0.651        1.26       0.092
  J6                   JUNCTION     0.000    0.043     0  10:55           0           1       0.269
  J7                   JUNCTION     0.000    0.040     0  11:30           0       0.712       0.359
  J8                   JUNCTION     0.166    0.204     0  11:30        3.31        4.03       0.058
  J9                   JUNCTION     0.000    0.155     0  12:10           0        2.67      -0.155
  Out_to_WWTP          OUTFALL      0.000    0.271     0  11:18           0        9.98       0.000
  T1                   STORAGE      0.000    0.544     0  05:22           0        11.1       4.381
  T2                   STORAGE      0.000    0.199     0  05:10           0        2.23      39.197
  T3                   STORAGE      0.000    0.566     0  00:32           0        7.38      21.159
  T4                   STORAGE      0.000    0.082     0  05:24           0        1.26      10.263
  T5                   STORAGE      0.000    0.160     0  05:20           0        1.76      17.312
  T6                   STORAGE      0.000    0.203     0  11:33           0        4.02      25.515
  
  
  **********************
  Node Surcharge Summary
  **********************
  
  No nodes were surcharged.
  
  
  *********************
  Node Flooding Summary
  *********************
  
  Flooding refers to all water that overflows a node, whether it ponds or not.
  --------------------------------------------------------------------------
                                                             Total   Maximum
                                 Maximum   Time of Max       Flood    Ponded
                        Hours       Rate    Occurrence      Volume     Depth
  Node                 Flooded       CMS   days hr:min    10^6 ltr    Meters
  --------------------------------------------------------------------------
  T1                      0.72     0.132      0  11:27       0.226     0.000
  
  
  **********************
  Storage Volume Summary
  **********************
  
  --------------------------------------------------------------------------------------------------
                         Average     Avg  Evap Exfil       Maximum     Max    Time of Max    Maximum
                          Volume    Pcnt  Pcnt  Pcnt        Volume    Pcnt     Occurrence    Outflow
  Storage Unit           1000 m3    Full  Loss  Loss       1000 m3    Full    days hr:min        CMS
  --------------------------------------------------------------------------------------------------
  T1                       0.395      56     0     0         0.700     100       0  11:17      0.271
  T2                       0.319      32     0     0         0.670      67       0  12:50      0.082
  T3                       1.428      55     0     0         2.362      91       0  13:04      0.166
  T4                       0.101      20     0     0         0.155      31       0  06:58      0.043
  T5                       0.202      40     0     0         0.321      64       0  12:05      0.031
  T6                       0.279      47     0     0         0.539      90       0  14:30      0.155
  
  
  ***********************
  Outfall Loading Summary
  ***********************
  
  -----------------------------------------------------------
                         Flow       Avg       Max       Total
                         Freq      Flow      Flow      Volume
  Outfall Node           Pcnt       CMS       CMS    10^6 ltr
  -----------------------------------------------------------
  Out_to_WWTP           99.43     0.191     0.271       9.978
  -----------------------------------------------------------
  System                99.43     0.191     0.271       9.978
  
  
  ********************
  Link Flow Summary
  ********************
  
  -----------------------------------------------------------------------------
                                 Maximum  Time of Max   Maximum    Max/    Max/
                                  |Flow|   Occurrence   |Veloc|    Full    Full
  Link                 Type          CMS  days hr:min     m/sec    Flow   Depth
  -----------------------------------------------------------------------------
  C1                   CONDUIT     0.031     0  12:07      0.95    0.01    0.11
  C10                  CONDUIT     0.203     0  11:33      1.69    0.02    0.55
  C11                  CONDUIT     0.237     0  11:25      2.00    0.01    0.10
  C12                  CONDUIT     0.152     0  12:20      1.46    0.01    0.16
  C13                  CONDUIT     0.566     0  00:32      2.96    0.03    0.64
  C14                  CONDUIT     0.271     0  11:18      2.08    0.02    0.09
  C15                  CONDUIT     0.311     0  00:25      2.82    0.99    0.65
  C16                  CONDUIT     0.263     0  00:29      1.43    0.03    0.11
  C17                  CONDUIT     0.556     0  00:28      2.85    0.03    0.15
  C18                  CONDUIT     0.199     0  05:10      3.22    0.01    0.52
  C19                  CONDUIT     0.080     0  09:13      1.17    0.03    0.18
  C2                   CONDUIT     0.043     0  11:03      1.38    0.05    0.20
  C20                  CONDUIT     0.336     0  05:20      2.30    0.01    0.10
  C21                  CONDUIT     0.104     0  05:20      1.63    0.59    0.44
  C22                  CONDUIT     0.102     0  05:21      1.18    0.05    0.23
  C23                  CONDUIT     0.544     0  05:22      1.26    0.06    0.58
  C3                   CONDUIT     0.166     0  11:08      2.14    0.06    0.16
  C4                   CONDUIT     0.160     0  05:20      2.44    0.04    0.57
  C5                   CONDUIT     0.037     0  05:15      1.25    0.63    0.63
  C6                   CONDUIT     0.036     0  05:25      1.15    0.58    0.46
  C7                   CONDUIT     0.082     0  05:24      1.47    0.02    0.55
  C8                   CONDUIT     0.040     0  11:30      1.18    0.51    0.46
  C9                   CONDUIT     0.039     0  11:33      0.90    0.13    0.27
  V1                   ORIFICE     0.271     0  11:17                      1.00
  V2                   ORIFICE     0.082     0  09:05                      1.00
  V3                   ORIFICE     0.166     0  11:25                      1.00
  V4                   ORIFICE     0.043     0  10:55                      1.00
  V5                   ORIFICE     0.031     0  12:05                      1.00
  V6                   ORIFICE     0.155     0  12:10                      1.00
  
  
  ***************************
  Flow Classification Summary
  ***************************
  
  -------------------------------------------------------------------------------------
                      Adjusted    ---------- Fraction of Time in Flow Class ---------- 
                       /Actual         Up    Down  Sub   Sup   Up    Down  Norm  Inlet 
  Conduit               Length    Dry  Dry   Dry   Crit  Crit  Crit  Crit  Ltd   Ctrl  
  -------------------------------------------------------------------------------------
  C1                      1.00   0.00  0.00  0.00  0.40  0.60  0.00  0.00  0.97  0.00
  C10                     1.00   0.00  0.00  0.00  0.97  0.03  0.00  0.00  0.99  0.00
  C11                     1.00   0.00  0.00  0.00  0.17  0.83  0.00  0.00  1.00  0.00
  C12                     1.00   0.00  0.00  0.00  0.73  0.27  0.00  0.00  0.90  0.00
  C13                     1.00   0.00  0.00  0.00  0.95  0.05  0.00  0.00  0.77  0.00
  C14                     1.00   0.00  0.00  0.00  0.01  0.99  0.00  0.00  0.57  0.00
  C15                     1.00   0.00  0.00  0.00  0.00  1.00  0.00  0.00  0.00  0.00
  C16                     1.00   0.00  0.00  0.00  0.34  0.66  0.00  0.00  0.21  0.00
  C17                     1.00   0.00  0.00  0.00  0.35  0.65  0.00  0.00  0.98  0.00
  C18                     1.00   0.00  0.00  0.00  0.97  0.03  0.00  0.00  0.99  0.00
  C19                     1.00   0.00  0.00  0.00  0.99  0.01  0.00  0.00  1.00  0.00
  C2                      1.00   0.00  0.00  0.00  0.47  0.53  0.00  0.00  0.99  0.00
  C20                     1.00   0.00  0.00  0.00  0.58  0.42  0.00  0.00  0.99  0.00
  C21                     1.00   0.00  0.00  0.00  0.00  1.00  0.00  0.00  0.00  0.00
  C22                     1.00   0.00  0.00  0.00  0.96  0.04  0.00  0.00  1.00  0.00
  C23                     1.00   0.00  0.00  0.00  0.93  0.06  0.00  0.00  0.97  0.00
  C3                      1.00   0.00  0.00  0.00  0.02  0.97  0.00  0.00  0.48  0.00
  C4                      1.00   0.00  0.00  0.00  0.98  0.02  0.00  0.00  0.99  0.00
  C5                      1.00   0.00  0.00  0.00  0.82  0.18  0.00  0.00  0.99  0.00
  C6                      1.00   0.00  0.00  0.00  0.00  0.99  0.00  0.00  0.00  0.00
  C7                      1.00   0.00  0.00  0.00  0.97  0.03  0.00  0.00  0.98  0.00
  C8                      1.00   0.00  0.00  0.00  0.05  0.95  0.00  0.00  0.00  0.00
  C9                      1.00   0.00  0.00  0.00  1.00  0.00  0.00  0.00  1.00  0.00
  
  
  *************************
  Conduit Surcharge Summary
  *************************
  
  ----------------------------------------------------------------------------
                                                           Hours        Hours 
                         --------- Hours Full --------   Above Full   Capacity
  Conduit                Both Ends  Upstream  Dnstream   Normal Flow   Limited
  ----------------------------------------------------------------------------
  C10                         0.01      0.01     10.31      0.01         0.01
  C13                         0.01      0.01      9.44      0.01         0.01
  C18                         0.01      0.01      4.66      0.01         0.01
  C23                         0.01      0.01     12.04      0.01         0.01
  C4                          0.01      0.01     12.01      0.01         0.01
  C7                          0.01      0.01      9.16      0.01         0.01
  

  Analysis begun on:  Sun Jul 17 21:09:22 2022
  Analysis ended on:  Sun Jul 17 21:09:24 2022
  Total elapsed time: 00:00:02