
  EPA STORM WATER MANAGEMENT MODEL - VERSION 5.1 (Build 5.3.0.dev0)
  --------------------------------------------------------------

  
  *********************************************************
  NOTE: The summary statistics displayed in this report are
  based on results found at every computational time step,  
  not just on results from each reporting time step.
  *********************************************************
  
  ****************
  Analysis Options
  ****************
  Flow Units ............... CMS
  Process Models:
    Rainfall/Runoff ........ YES
    RDII ................... NO
    Snowmelt ............... NO
    Groundwater ............ NO
    Flow Routing ........... YES
    Ponding Allowed ........ NO
    Water Quality .......... NO
  Infiltration Method ...... HORTON
  Flow Routing Method ...... DYNWAVE
  Surcharge Method ......... EXTRAN
  Starting Date ............ 01/08/2008 12:35:00
  Ending Date .............. 01/08/2008 22:30:00
  Antecedent Dry Days ...... 0.0
  Report Time Step ......... 00:05:00
  Wet Time Step ............ 00:05:00
  Dry Time Step ............ 01:00:00
  Routing Time Step ........ 30.00 sec
  Variable Time Step ....... YES
  Maximum Trials ........... 8
  Number of Threads ........ 1
  Head Tolerance ........... 0.001500 m
  
  
  **************************        Volume         Depth
  Runoff Quantity Continuity     hectare-m            mm
  **************************     ---------       -------
  Total Precipitation ......         1.182         6.561
  Evaporation Loss .........         0.000         0.000
  Infiltration Loss ........         0.000         0.000
  Surface Runoff ...........         1.150         6.382
  Final Storage ............         0.033         0.184
  Continuity Error (%) .....        -0.086
  
  
  **************************        Volume        Volume
  Flow Routing Continuity        hectare-m      10^6 ltr
  **************************     ---------     ---------
  Dry Weather Inflow .......         0.365         3.654
  Wet Weather Inflow .......         1.150        11.502
  Groundwater Inflow .......         0.000         0.000
  RDII Inflow ..............         0.000         0.000
  External Inflow ..........         0.000         0.000
  External Outflow .........         0.563         5.633
  Flooding Loss ............         0.028         0.283
  Evaporation Loss .........         0.000         0.000
  Exfiltration Loss ........         0.000         0.000
  Initial Stored Volume ....         0.000         0.000
  Final Stored Volume ......         0.702         7.022
  Continuity Error (%) .....        14.636
  
  
  *************************
  Highest Continuity Errors
  *************************
  Node T2 (35.60%)
  Node T4 (26.89%)
  Node T5 (21.78%)
  Node T6 (20.63%)
  Node T3 (20.23%)
  
  
  ***************************
  Time-Step Critical Elements
  ***************************
  Link C15 (39.54%)
  
  
  ********************************
  Highest Flow Instability Indexes
  ********************************
  Link C13 (6)
  Link C11 (5)
  Link V3 (4)
  Link C23 (4)
  Link C3 (4)
  
  
  *************************
  Routing Time Step Summary
  *************************
  Minimum Time Step           :     0.01 sec
  Average Time Step           :    26.30 sec
  Maximum Time Step           :    30.00 sec
  Percent in Steady State     :     2.61
  Average Iterations per Step :     2.02
  Percent Not Converging      :     0.00
  
  
  ***************************
  Subcatchment Runoff Summary
  ***************************
  
  ------------------------------------------------------------------------------------------------------------------------------
                            Total      Total      Total      Total     Imperv       Perv      Total       Total     Peak  Runoff
                           Precip      Runon       Evap      Infil     Runoff     Runoff     Runoff      Runoff   Runoff   Coeff
  Subcatchment                 mm         mm         mm         mm         mm         mm         mm    10^6 ltr      CMS
  ------------------------------------------------------------------------------------------------------------------------------
  SC01                       5.20       0.00       0.00       0.00       5.08       0.00       5.08        1.68     0.24   0.978
  SC010                      5.20       0.00       0.00       0.00       5.04       0.00       5.04        0.59     0.08   0.970
  SC02                       6.62       0.00       0.00       0.00       6.50       0.00       6.50        1.48     0.20   0.982
  SC03                       7.53       0.00       0.00       0.00       7.46       0.00       7.46        1.34     0.23   0.990
  SC04                       6.62       0.00       0.00       0.00       6.34       0.00       6.34        0.44     0.05   0.958
  SC05                       5.20       0.00       0.00       0.00       5.07       0.00       5.07        0.79     0.11   0.976
  SC06                       7.46       0.00       0.00       0.00       7.10       0.00       7.10        2.31     0.30   0.952
  SC07                       6.62       0.00       0.00       0.00       6.34       0.00       6.34        0.30     0.04   0.958
  SC08                       7.53       0.00       0.00       0.00       7.39       0.00       7.39        2.07     0.32   0.981
  SC09                       7.46       0.00       0.00       0.00       7.26       0.00       7.26        0.50     0.07   0.973
  
  
  ******************
  Node Depth Summary
  ******************
  
  ---------------------------------------------------------------------------------
                                 Average  Maximum  Maximum  Time of Max    Reported
                                   Depth    Depth      HGL   Occurrence   Max Depth
  Node                 Type       Meters   Meters   Meters  days hr:min      Meters
  ---------------------------------------------------------------------------------
  CSO10                JUNCTION     0.11     0.24    30.24     0  05:50        0.24
  CSO7                 JUNCTION     0.09     0.16    34.16     0  05:55        0.16
  CSO8                 JUNCTION     0.14     0.40    32.40     0  05:40        0.40
  CSO9                 JUNCTION     0.11     0.26    40.26     0  05:59        0.26
  J1                   JUNCTION     0.07     0.12    34.12     0  05:50        0.12
  J10                  JUNCTION     0.10     0.23    29.23     0  05:39        0.23
  J11                  JUNCTION     0.10     0.24    31.24     0  05:41        0.24
  J12                  JUNCTION     0.29     0.75    26.75     0  08:05        0.75
  J13                  JUNCTION     0.06     0.13    29.13     0  05:52        0.13
  J14                  JUNCTION     0.11     0.19    20.19     0  09:02        0.19
  J15                  JUNCTION     0.15     0.24    15.24     0  06:03        0.24
  J16                  JUNCTION     0.06     0.13    30.13     0  05:50        0.13
  J17                  JUNCTION     0.05     0.09    20.09     0  05:00        0.09
  J18                  JUNCTION     0.05     0.11    29.11     0  05:53        0.11
  J19                  JUNCTION     0.13     0.17     8.17     0  06:46        0.17
  J2                   JUNCTION     0.06     0.07    25.07     0  07:27        0.07
  J3                   JUNCTION     0.10     0.15    18.15     0  09:09        0.15
  J4                   JUNCTION     0.11     0.20    33.20     0  05:58        0.20
  J5                   JUNCTION     0.06     0.11    32.11     0  05:57        0.11
  J6                   JUNCTION     0.05     0.07    25.07     0  04:28        0.07
  J7                   JUNCTION     0.09     0.17    39.17     0  06:01        0.17
  J8                   JUNCTION     0.11     0.21    36.21     0  06:00        0.20
  J9                   JUNCTION     0.10     0.16    29.16     0  06:50        0.16
  Out_to_WWTP          OUTFALL      0.13     0.17     6.17     0  06:44        0.17
  T1                   STORAGE      2.30     5.00    15.00     0  06:45        5.00
  T2                   STORAGE      1.56     3.60    24.60     0  08:54        3.60
  T3                   STORAGE      2.30     4.75    26.75     0  08:01        4.75
  T4                   STORAGE      1.75     4.05    31.05     0  08:45        4.05
  T5                   STORAGE      1.73     3.58    30.58     0  07:26        3.58
  T6                   STORAGE      2.27     5.00    36.00     0  06:38        5.00
  
  
  *******************
  Node Inflow Summary
  *******************
  
  -------------------------------------------------------------------------------------------------
                                  Maximum  Maximum                  Lateral       Total        Flow
                                  Lateral    Total  Time of Max      Inflow      Inflow     Balance
                                   Inflow   Inflow   Occurrence      Volume      Volume       Error
  Node                 Type           CMS      CMS  days hr:min    10^6 ltr    10^6 ltr     Percent
  -------------------------------------------------------------------------------------------------
  CSO10                JUNCTION     0.084    0.084     0  05:50       0.724       0.724       0.056
  CSO7                 JUNCTION     0.044    0.044     0  05:55       0.575       0.576       0.037
  CSO8                 JUNCTION     0.322    0.322     0  05:40        2.27        2.27       0.001
  CSO9                 JUNCTION     0.074    0.074     0  05:55       0.686       0.687       0.032
  J1                   JUNCTION     0.126    0.126     0  05:50        1.32        1.32      -0.053
  J10                  JUNCTION     0.241    0.553     0  05:38        1.71        3.98      -0.127
  J11                  JUNCTION     0.000    0.322     0  05:40           0        2.27       0.001
  J12                  JUNCTION     0.000    0.658     0  05:50           0        6.35       5.617
  J13                  JUNCTION     0.210    0.210     0  05:50        1.92        1.92      -0.267
  J14                  JUNCTION     0.000    0.184     0  09:00           0         2.5       0.561
  J15                  JUNCTION     0.000    0.497     0  06:00           0        7.05       1.311
  J16                  JUNCTION     0.253    0.253     0  05:50         2.2         2.2      -0.036
  J17                  JUNCTION     0.000    0.050     0  05:00           0       0.555       0.925
  J18                  JUNCTION     0.000    0.084     0  05:51           0       0.723      -0.037
  J19                  JUNCTION     0.000    0.271     0  06:45           0        5.64       0.209
  J2                   JUNCTION     0.000    0.033     0  07:26           0       0.745       0.608
  J3                   JUNCTION     0.000    0.233     0  09:02           0        3.66       2.286
  J4                   JUNCTION     0.000    0.044     0  05:55           0       0.576       0.188
  J5                   JUNCTION     0.056    0.099     0  05:55       0.558        1.13      -0.034
  J6                   JUNCTION     0.000    0.029     0  04:45           0       0.438       0.536
  J7                   JUNCTION     0.000    0.074     0  05:58           0       0.686       0.178
  J8                   JUNCTION     0.318    0.392     0  06:00         3.2        3.89      -0.019
  J9                   JUNCTION     0.000    0.175     0  06:39           0        2.32      -2.015
  Out_to_WWTP          OUTFALL      0.000    0.271     0  06:46           0        5.63       0.000
  T1                   STORAGE      0.000    0.491     0  06:03           0        6.96      10.276
  T2                   STORAGE      0.000    0.210     0  05:52           0        1.93      55.272
  T3                   STORAGE      0.000    0.655     0  05:52           0        6.02      25.366
  T4                   STORAGE      0.000    0.098     0  05:57           0        1.13      36.776
  T5                   STORAGE      0.000    0.126     0  05:50           0        1.32      27.846
  T6                   STORAGE      0.000    0.390     0  06:00           0        3.89      25.997
  
  
  **********************
  Node Surcharge Summary
  **********************
  
  No nodes were surcharged.
  
  
  *********************
  Node Flooding Summary
  *********************
  
  Flooding refers to all water that overflows a node, whether it ponds or not.
  --------------------------------------------------------------------------
                                                             Total   Maximum
                                 Maximum   Time of Max       Flood    Ponded
                        Hours       Rate    Occurrence      Volume     Depth
  Node                 Flooded       CMS   days hr:min    10^6 ltr    Meters
  --------------------------------------------------------------------------
  T1                      0.49     0.061      0  06:45       0.065     0.000
  T6                      0.56     0.264      0  06:50       0.217     0.000
  
  
  **********************
  Storage Volume Summary
  **********************
  
  --------------------------------------------------------------------------------------------------
                         Average     Avg  Evap Exfil       Maximum     Max    Time of Max    Maximum
                          Volume    Pcnt  Pcnt  Pcnt        Volume    Pcnt     Occurrence    Outflow
  Storage Unit           1000 m3    Full  Loss  Loss       1000 m3    Full    days hr:min        CMS
  --------------------------------------------------------------------------------------------------
  T1                       0.322      46     0     0         0.700     100       0  06:45      0.271
  T2                       0.312      31     0     0         0.719      72       0  08:54      0.050
  T3                       1.197      46     0     0         2.470      95       0  08:01      0.184
  T4                       0.175      35     0     0         0.405      81       0  08:45      0.029
  T5                       0.173      35     0     0         0.358      72       0  07:26      0.033
  T6                       0.273      45     0     0         0.600     100       0  06:38      0.175
  
  
  ***********************
  Outfall Loading Summary
  ***********************
  
  -----------------------------------------------------------
                         Flow       Avg       Max       Total
                         Freq      Flow      Flow      Volume
  Outfall Node           Pcnt       CMS       CMS    10^6 ltr
  -----------------------------------------------------------
  Out_to_WWTP           99.33     0.162     0.271       5.633
  -----------------------------------------------------------
  System                99.33     0.162     0.271       5.633
  
  
  ********************
  Link Flow Summary
  ********************
  
  -----------------------------------------------------------------------------
                                 Maximum  Time of Max   Maximum    Max/    Max/
                                  |Flow|   Occurrence   |Veloc|    Full    Full
  Link                 Type          CMS  days hr:min     m/sec    Flow   Depth
  -----------------------------------------------------------------------------
  C1                   CONDUIT     0.033     0  07:28      0.98    0.01    0.11
  C10                  CONDUIT     0.390     0  06:00      1.87    0.04    0.57
  C11                  CONDUIT     0.228     0  09:09      1.95    0.01    0.09
  C12                  CONDUIT     0.175     0  06:50      1.10    0.01    0.22
  C13                  CONDUIT     0.655     0  05:52      1.64    0.04    0.69
  C14                  CONDUIT     0.271     0  06:46      2.08    0.02    0.09
  C15                  CONDUIT     0.322     0  05:40      2.64    1.02    0.71
  C16                  CONDUIT     0.321     0  05:42      1.55    0.03    0.12
  C17                  CONDUIT     0.552     0  05:40      2.62    0.03    0.20
  C18                  CONDUIT     0.210     0  05:52      3.12    0.01    0.53
  C19                  CONDUIT     0.047     0  05:00      0.90    0.02    0.15
  C2                   CONDUIT     0.029     0  04:29      1.28    0.03    0.17
  C20                  CONDUIT     0.253     0  05:50      3.15    0.01    0.09
  C21                  CONDUIT     0.084     0  05:51      1.54    0.48    0.39
  C22                  CONDUIT     0.084     0  05:53      1.08    0.04    0.21
  C23                  CONDUIT     0.491     0  06:03      1.38    0.05    0.58
  C3                   CONDUIT     0.185     0  09:03      2.17    0.07    0.17
  C4                   CONDUIT     0.126     0  05:50      3.04    0.03    0.56
  C5                   CONDUIT     0.044     0  05:55      1.38    0.74    0.71
  C6                   CONDUIT     0.043     0  05:58      1.20    0.69    0.51
  C7                   CONDUIT     0.098     0  05:57      1.62    0.02    0.55
  C8                   CONDUIT     0.074     0  05:58      1.30    0.93    0.68
  C9                   CONDUIT     0.074     0  06:01      1.09    0.25    0.38
  V1                   ORIFICE     0.271     0  06:45                      1.00
  V2                   ORIFICE     0.050     0  05:00                      1.00
  V3                   ORIFICE     0.184     0  09:00                      1.00
  V4                   ORIFICE     0.029     0  04:45                      1.00
  V5                   ORIFICE     0.033     0  07:26                      1.00
  V6                   ORIFICE     0.175     0  06:39                      1.00
  
  
  ***************************
  Flow Classification Summary
  ***************************
  
  -------------------------------------------------------------------------------------
                      Adjusted    ---------- Fraction of Time in Flow Class ---------- 
                       /Actual         Up    Down  Sub   Sup   Up    Down  Norm  Inlet 
  Conduit               Length    Dry  Dry   Dry   Crit  Crit  Crit  Crit  Ltd   Ctrl  
  -------------------------------------------------------------------------------------
  C1                      1.00   0.00  0.00  0.00  0.49  0.51  0.00  0.00  0.97  0.00
  C10                     1.00   0.00  0.00  0.00  0.97  0.03  0.00  0.00  0.98  0.00
  C11                     1.00   0.00  0.00  0.00  0.20  0.80  0.00  0.00  1.00  0.00
  C12                     1.00   0.00  0.00  0.00  0.81  0.19  0.00  0.00  1.00  0.00
  C13                     1.00   0.00  0.00  0.00  0.92  0.08  0.00  0.00  0.59  0.00
  C14                     1.00   0.01  0.00  0.00  0.01  0.99  0.00  0.00  0.50  0.00
  C15                     1.00   0.00  0.00  0.00  0.00  1.00  0.00  0.00  0.00  0.00
  C16                     1.00   0.00  0.00  0.00  0.43  0.57  0.00  0.00  0.46  0.00
  C17                     1.00   0.00  0.00  0.00  0.31  0.69  0.00  0.00  0.98  0.00
  C18                     1.00   0.00  0.00  0.00  0.97  0.03  0.00  0.00  0.98  0.00
  C19                     1.00   0.00  0.00  0.00  0.90  0.10  0.00  0.00  1.00  0.00
  C2                      1.00   0.00  0.00  0.00  0.72  0.27  0.00  0.00  0.97  0.00
  C20                     1.00   0.00  0.00  0.00  0.48  0.52  0.00  0.00  0.99  0.00
  C21                     1.00   0.00  0.00  0.00  0.00  1.00  0.00  0.00  0.00  0.00
  C22                     1.00   0.00  0.00  0.00  0.95  0.05  0.00  0.00  1.00  0.00
  C23                     1.00   0.00  0.00  0.00  0.94  0.06  0.00  0.00  0.96  0.00
  C3                      1.00   0.00  0.00  0.00  0.03  0.96  0.00  0.00  0.40  0.00
  C4                      1.00   0.00  0.00  0.00  0.98  0.02  0.00  0.00  0.99  0.00
  C5                      1.00   0.00  0.00  0.00  0.93  0.07  0.00  0.00  0.99  0.00
  C6                      1.00   0.00  0.00  0.00  0.01  0.99  0.00  0.00  0.00  0.00
  C7                      1.00   0.00  0.00  0.00  0.96  0.04  0.00  0.00  0.98  0.00
  C8                      1.00   0.00  0.00  0.00  0.12  0.88  0.00  0.00  0.00  0.00
  C9                      1.00   0.00  0.00  0.00  1.00  0.00  0.00  0.00  1.00  0.00
  
  
  *************************
  Conduit Surcharge Summary
  *************************
  
  ----------------------------------------------------------------------------
                                                           Hours        Hours 
                         --------- Hours Full --------   Above Full   Capacity
  Conduit                Both Ends  Upstream  Dnstream   Normal Flow   Limited
  ----------------------------------------------------------------------------
  C10                         0.01      0.01      4.46      0.01         0.01
  C13                         0.01      0.01      4.50      0.01         0.01
  C15                         0.01      0.01      0.01      0.29         0.01
  C18                         0.01      0.01      3.86      0.01         0.01
  C23                         0.01      0.01      4.61      0.01         0.01
  C4                          0.01      0.01      4.90      0.01         0.01
  C7                          0.01      0.01      4.56      0.01         0.01
  

  Analysis begun on:  Sun Jul 17 20:37:33 2022
  Analysis ended on:  Sun Jul 17 20:37:34 2022
  Total elapsed time: 00:00:01