
  EPA STORM WATER MANAGEMENT MODEL - VERSION 5.1 (Build 5.3.0.dev0)
  --------------------------------------------------------------

  
  *********************************************************
  NOTE: The summary statistics displayed in this report are
  based on results found at every computational time step,  
  not just on results from each reporting time step.
  *********************************************************
  
  ****************
  Analysis Options
  ****************
  Flow Units ............... CMS
  Process Models:
    Rainfall/Runoff ........ YES
    RDII ................... NO
    Snowmelt ............... NO
    Groundwater ............ NO
    Flow Routing ........... YES
    Ponding Allowed ........ NO
    Water Quality .......... NO
  Infiltration Method ...... HORTON
  Flow Routing Method ...... DYNWAVE
  Surcharge Method ......... EXTRAN
  Starting Date ............ 10/06/2009 05:25:00
  Ending Date .............. 10/06/2009 16:15:00
  Antecedent Dry Days ...... 0.0
  Report Time Step ......... 00:05:00
  Wet Time Step ............ 00:05:00
  Dry Time Step ............ 01:00:00
  Routing Time Step ........ 30.00 sec
  Variable Time Step ....... YES
  Maximum Trials ........... 8
  Number of Threads ........ 1
  Head Tolerance ........... 0.001500 m
  
  
  **************************        Volume         Depth
  Runoff Quantity Continuity     hectare-m            mm
  **************************     ---------       -------
  Total Precipitation ......         1.196         6.639
  Evaporation Loss .........         0.000         0.000
  Infiltration Loss ........         0.000         0.000
  Surface Runoff ...........         1.164         6.458
  Final Storage ............         0.038         0.211
  Continuity Error (%) .....        -0.456
  
  
  **************************        Volume        Volume
  Flow Routing Continuity        hectare-m      10^6 ltr
  **************************     ---------     ---------
  Dry Weather Inflow .......         0.506         5.058
  Wet Weather Inflow .......         1.163        11.633
  Groundwater Inflow .......         0.000         0.000
  RDII Inflow ..............         0.000         0.000
  External Inflow ..........         0.000         0.000
  External Outflow .........         0.759         7.589
  Flooding Loss ............         0.062         0.624
  Evaporation Loss .........         0.000         0.000
  Exfiltration Loss ........         0.000         0.000
  Initial Stored Volume ....         0.000         0.000
  Final Stored Volume ......         0.635         6.351
  Continuity Error (%) .....        12.747
  
  
  *************************
  Highest Continuity Errors
  *************************
  Node T4 (28.67%)
  Node T2 (26.87%)
  Node T5 (24.08%)
  Node T6 (22.41%)
  Node T3 (17.91%)
  
  
  ***************************
  Time-Step Critical Elements
  ***************************
  Link C15 (43.48%)
  Link C21 (4.88%)
  
  
  ********************************
  Highest Flow Instability Indexes
  ********************************
  Link C11 (3)
  Link C23 (3)
  Link C13 (3)
  Link V3 (3)
  Link C3 (3)
  
  
  *************************
  Routing Time Step Summary
  *************************
  Minimum Time Step           :     0.03 sec
  Average Time Step           :    26.98 sec
  Maximum Time Step           :    30.00 sec
  Percent in Steady State     :     8.46
  Average Iterations per Step :     2.10
  Percent Not Converging      :     0.15
  
  
  ***************************
  Subcatchment Runoff Summary
  ***************************
  
  ------------------------------------------------------------------------------------------------------------------------------
                            Total      Total      Total      Total     Imperv       Perv      Total       Total     Peak  Runoff
                           Precip      Runon       Evap      Infil     Runoff     Runoff     Runoff      Runoff   Runoff   Coeff
  Subcatchment                 mm         mm         mm         mm         mm         mm         mm    10^6 ltr      CMS
  ------------------------------------------------------------------------------------------------------------------------------
  SC01                       7.45       0.00       0.00       0.00       7.35       0.00       7.35        2.42     0.66   0.986
  SC010                      7.45       0.00       0.00       0.00       7.28       0.00       7.28        0.86     0.20   0.977
  SC02                       6.96       0.00       0.00       0.00       6.84       0.00       6.84        1.56     0.17   0.983
  SC03                       6.20       0.00       0.00       0.00       6.15       0.00       6.15        1.11     0.26   0.992
  SC04                       6.96       0.00       0.00       0.00       6.62       0.00       6.62        0.46     0.04   0.952
  SC05                       7.45       0.00       0.00       0.00       7.33       0.00       7.33        1.14     0.30   0.984
  SC06                       5.63       0.00       0.00       0.00       5.29       0.00       5.29        1.72     0.13   0.939
  SC07                       6.96       0.00       0.00       0.00       6.62       0.00       6.62        0.31     0.03   0.952
  SC08                       6.20       0.00       0.00       0.00       6.02       0.00       6.02        1.68     0.22   0.971
  SC09                       5.63       0.00       0.00       0.00       5.43       0.00       5.43        0.37     0.03   0.964
  
  
  ******************
  Node Depth Summary
  ******************
  
  ---------------------------------------------------------------------------------
                                 Average  Maximum  Maximum  Time of Max    Reported
                                   Depth    Depth      HGL   Occurrence   Max Depth
  Node                 Type       Meters   Meters   Meters  days hr:min      Meters
  ---------------------------------------------------------------------------------
  CSO10                JUNCTION     0.12     1.00    31.00     0  06:44        1.00
  CSO7                 JUNCTION     0.10     0.15    34.15     0  06:46        0.15
  CSO8                 JUNCTION     0.13     0.31    32.31     0  00:45        0.30
  CSO9                 JUNCTION     0.10     0.17    40.17     0  05:06        0.17
  J1                   JUNCTION     0.07     0.19    34.19     0  06:45        0.18
  J10                  JUNCTION     0.10     0.20    29.20     0  00:47        0.19
  J11                  JUNCTION     0.10     0.19    31.19     0  00:49        0.19
  J12                  JUNCTION     0.13     0.22    26.22     0  00:51        0.22
  J13                  JUNCTION     0.07     0.12    29.12     0  06:46        0.11
  J14                  JUNCTION     0.12     0.17    20.17     0  08:57        0.17
  J15                  JUNCTION     0.16     0.32    15.32     0  06:48        0.31
  J16                  JUNCTION     0.07     0.20    30.20     0  06:45        0.20
  J17                  JUNCTION     0.06     0.10    20.10     0  05:35        0.10
  J18                  JUNCTION     0.06     0.16    29.16     0  06:46        0.15
  J19                  JUNCTION     0.14     0.17     8.17     0  06:49        0.17
  J2                   JUNCTION     0.06     0.08    25.08     0  09:13        0.08
  J3                   JUNCTION     0.10     0.14    18.14     0  09:00        0.14
  J4                   JUNCTION     0.12     0.17    33.17     0  06:50        0.17
  J5                   JUNCTION     0.06     0.09    32.09     0  06:49        0.09
  J6                   JUNCTION     0.05     0.12    25.12     0  08:50        0.12
  J7                   JUNCTION     0.08     0.13    39.13     0  05:12        0.13
  J8                   JUNCTION     0.10     0.15    36.15     0  05:15        0.15
  J9                   JUNCTION     0.09     0.16    29.16     0  08:38        0.16
  Out_to_WWTP          OUTFALL      0.14     0.17     6.17     0  08:38        0.17
  T1                   STORAGE      2.98     5.00    15.00     0  06:47        5.00
  T2                   STORAGE      1.52     3.42    24.42     0  10:10        3.42
  T3                   STORAGE      1.98     3.23    25.23     0  09:43        3.23
  T4                   STORAGE      2.27     4.64    31.64     0  10:49        4.64
  T5                   STORAGE      2.35     4.87    31.87     0  09:11        4.87
  T6                   STORAGE      2.21     4.98    35.98     0  10:49        4.97
  
  
  *******************
  Node Inflow Summary
  *******************
  
  -------------------------------------------------------------------------------------------------
                                  Maximum  Maximum                  Lateral       Total        Flow
                                  Lateral    Total  Time of Max      Inflow      Inflow     Balance
                                   Inflow   Inflow   Occurrence      Volume      Volume       Error
  Node                 Type           CMS      CMS  days hr:min    10^6 ltr    10^6 ltr     Percent
  -------------------------------------------------------------------------------------------------
  CSO10                JUNCTION     0.207    0.207     0  06:45        1.03        1.03       0.007
  CSO7                 JUNCTION     0.039    0.039     0  06:45       0.685       0.686       0.082
  CSO8                 JUNCTION     0.233    0.233     0  00:45        2.07        2.07       0.031
  CSO9                 JUNCTION     0.042    0.042     0  05:05       0.624       0.625       0.105
  J1                   JUNCTION     0.323    0.323     0  06:45        1.86        1.86       0.023
  J10                  JUNCTION     0.274    0.424     0  00:46         1.6        3.66       0.124
  J11                  JUNCTION     0.000    0.233     0  00:45           0        2.07       0.286
  J12                  JUNCTION     0.000    0.443     0  00:48           0        5.79       0.221
  J13                  JUNCTION     0.195    0.195     0  06:45        2.15        2.16      -0.245
  J14                  JUNCTION     0.000    0.150     0  09:00           0        3.12       0.221
  J15                  JUNCTION     0.000    0.999     0  06:46           0        9.58       0.741
  J16                  JUNCTION     0.681    0.681     0  06:45        3.13        3.13      -0.065
  J17                  JUNCTION     0.000    0.068     0  05:35           0       0.909       0.460
  J18                  JUNCTION     0.000    0.201     0  06:45           0        1.03      -0.021
  J19                  JUNCTION     0.000    0.271     0  06:48           0         7.6       0.156
  J2                   JUNCTION     0.000    0.039     0  09:11           0       0.969       0.573
  J3                   JUNCTION     0.000    0.215     0  08:59           0        4.53       0.738
  J4                   JUNCTION     0.000    0.038     0  06:46           0       0.686       0.488
  J5                   JUNCTION     0.043    0.074     0  06:48        0.62         1.3       0.032
  J6                   JUNCTION     0.000    0.074     0  08:45           0       0.465       0.534
  J7                   JUNCTION     0.000    0.042     0  05:06           0       0.625       0.479
  J8                   JUNCTION     0.168    0.210     0  05:15        2.92        3.55       0.132
  J9                   JUNCTION     0.000    0.162     0  08:30           0        2.15       0.820
  Out_to_WWTP          OUTFALL      0.000    0.271     0  06:49           0        7.59       0.000
  T1                   STORAGE      0.000    0.901     0  06:48           0        9.51       7.923
  T2                   STORAGE      0.000    0.186     0  06:46           0        2.16      36.749
  T3                   STORAGE      0.000    0.438     0  00:52           0        5.78      21.823
  T4                   STORAGE      0.000    0.074     0  06:49           0         1.3      40.194
  T5                   STORAGE      0.000    0.317     0  06:45           0        1.86      31.718
  T6                   STORAGE      0.000    0.209     0  05:15           0        3.54      28.883
  
  
  **********************
  Node Surcharge Summary
  **********************
  
  Surcharging occurs when water rises above the top of the highest conduit.
  ---------------------------------------------------------------------
                                               Max. Height   Min. Depth
                                   Hours       Above Crown    Below Rim
  Node                 Type      Surcharged         Meters       Meters
  ---------------------------------------------------------------------
  CSO10                JUNCTION        0.08          0.560        0.000
  
  
  *********************
  Node Flooding Summary
  *********************
  
  Flooding refers to all water that overflows a node, whether it ponds or not.
  --------------------------------------------------------------------------
                                                             Total   Maximum
                                 Maximum   Time of Max       Flood    Ponded
                        Hours       Rate    Occurrence      Volume     Depth
  Node                 Flooded       CMS   days hr:min    10^6 ltr    Meters
  --------------------------------------------------------------------------
  CSO10                   0.02     0.006      0  06:45       0.000     0.000
  T1                      1.24     0.630      0  06:48       0.621     0.000
  
  
  **********************
  Storage Volume Summary
  **********************
  
  --------------------------------------------------------------------------------------------------
                         Average     Avg  Evap Exfil       Maximum     Max    Time of Max    Maximum
                          Volume    Pcnt  Pcnt  Pcnt        Volume    Pcnt     Occurrence    Outflow
  Storage Unit           1000 m3    Full  Loss  Loss       1000 m3    Full    days hr:min        CMS
  --------------------------------------------------------------------------------------------------
  T1                       0.417      60     0     0         0.700     100       0  06:47      0.271
  T2                       0.304      30     0     0         0.683      68       0  10:10      0.068
  T3                       1.032      40     0     0         1.682      65       0  09:43      0.150
  T4                       0.227      45     0     0         0.464      93       0  10:49      0.074
  T5                       0.235      47     0     0         0.487      97       0  09:11      0.039
  T6                       0.265      44     0     0         0.598     100       0  10:49      0.162
  
  
  ***********************
  Outfall Loading Summary
  ***********************
  
  -----------------------------------------------------------
                         Flow       Avg       Max       Total
                         Freq      Flow      Flow      Volume
  Outfall Node           Pcnt       CMS       CMS    10^6 ltr
  -----------------------------------------------------------
  Out_to_WWTP           99.09     0.193     0.271       7.589
  -----------------------------------------------------------
  System                99.09     0.193     0.271       7.589
  
  
  ********************
  Link Flow Summary
  ********************
  
  -----------------------------------------------------------------------------
                                 Maximum  Time of Max   Maximum    Max/    Max/
                                  |Flow|   Occurrence   |Veloc|    Full    Full
  Link                 Type          CMS  days hr:min     m/sec    Flow   Depth
  -----------------------------------------------------------------------------
  C1                   CONDUIT     0.039     0  09:13      1.10    0.01    0.11
  C10                  CONDUIT     0.209     0  05:15      1.50    0.02    0.55
  C11                  CONDUIT     0.200     0  09:00      1.65    0.01    0.11
  C12                  CONDUIT     0.162     0  08:40      1.46    0.01    0.08
  C13                  CONDUIT     0.438     0  00:52      2.70    0.03    0.55
  C14                  CONDUIT     0.271     0  06:49      2.08    0.02    0.09
  C15                  CONDUIT     0.233     0  00:45      2.68    0.74    0.53
  C16                  CONDUIT     0.202     0  00:49      1.29    0.02    0.10
  C17                  CONDUIT     0.420     0  00:48      2.62    0.02    0.10
  C18                  CONDUIT     0.186     0  06:46      1.97    0.01    0.53
  C19                  CONDUIT     0.065     0  05:35      0.98    0.02    0.18
  C2                   CONDUIT     0.073     0  08:50      1.85    0.08    0.20
  C20                  CONDUIT     0.667     0  06:45      4.75    0.02    0.13
  C21                  CONDUIT     0.201     0  06:45      1.84    1.15    0.68
  C22                  CONDUIT     0.192     0  06:46      1.55    0.09    0.30
  C23                  CONDUIT     0.901     0  06:48      1.19    0.10    0.61
  C3                   CONDUIT     0.152     0  08:58      2.06    0.06    0.15
  C4                   CONDUIT     0.317     0  06:45      5.92    0.08    0.59
  C5                   CONDUIT     0.038     0  06:46      1.26    0.66    0.63
  C6                   CONDUIT     0.035     0  06:51      1.16    0.56    0.45
  C7                   CONDUIT     0.074     0  06:49      1.31    0.02    0.55
  C8                   CONDUIT     0.042     0  05:06      1.75    0.53    0.47
  C9                   CONDUIT     0.041     0  05:12      0.92    0.14    0.28
  V1                   ORIFICE     0.271     0  06:48                      1.00
  V2                   ORIFICE     0.068     0  05:35                      1.00
  V3                   ORIFICE     0.150     0  09:00                      1.00
  V4                   ORIFICE     0.074     0  08:45                      1.00
  V5                   ORIFICE     0.039     0  09:11                      1.00
  V6                   ORIFICE     0.162     0  08:30                      1.00
  
  
  ***************************
  Flow Classification Summary
  ***************************
  
  -------------------------------------------------------------------------------------
                      Adjusted    ---------- Fraction of Time in Flow Class ---------- 
                       /Actual         Up    Down  Sub   Sup   Up    Down  Norm  Inlet 
  Conduit               Length    Dry  Dry   Dry   Crit  Crit  Crit  Crit  Ltd   Ctrl  
  -------------------------------------------------------------------------------------
  C1                      1.00   0.00  0.00  0.00  0.53  0.47  0.00  0.00  0.96  0.00
  C10                     1.00   0.00  0.00  0.00  0.97  0.03  0.00  0.00  0.98  0.00
  C11                     1.00   0.00  0.00  0.00  0.16  0.84  0.00  0.00  1.00  0.00
  C12                     1.00   0.00  0.00  0.00  0.69  0.30  0.00  0.00  0.96  0.00
  C13                     1.00   0.00  0.00  0.00  0.91  0.09  0.00  0.00  0.92  0.00
  C14                     1.00   0.01  0.00  0.00  0.01  0.99  0.00  0.00  0.54  0.00
  C15                     1.00   0.05  0.00  0.00  0.00  0.95  0.00  0.00  0.00  0.00
  C16                     1.00   0.00  0.05  0.00  0.08  0.87  0.00  0.00  0.04  0.00
  C17                     1.00   0.00  0.00  0.00  0.12  0.88  0.00  0.00  0.97  0.00
  C18                     1.00   0.00  0.00  0.00  0.91  0.09  0.00  0.00  0.97  0.00
  C19                     1.00   0.00  0.00  0.00  0.83  0.17  0.00  0.00  1.00  0.00
  C2                      1.00   0.00  0.00  0.00  0.87  0.13  0.00  0.00  0.96  0.00
  C20                     1.00   0.00  0.00  0.00  0.43  0.57  0.00  0.00  0.99  0.00
  C21                     1.00   0.00  0.00  0.00  0.00  1.00  0.00  0.00  0.00  0.00
  C22                     1.00   0.00  0.00  0.00  0.94  0.06  0.00  0.00  1.00  0.00
  C23                     1.00   0.00  0.00  0.00  0.90  0.10  0.00  0.00  0.95  0.00
  C3                      1.00   0.00  0.00  0.00  0.06  0.93  0.00  0.00  0.14  0.00
  C4                      1.00   0.00  0.00  0.00  0.96  0.04  0.00  0.00  0.98  0.00
  C5                      1.00   0.00  0.00  0.00  0.86  0.14  0.00  0.00  0.98  0.00
  C6                      1.00   0.00  0.00  0.00  0.01  0.99  0.00  0.00  0.00  0.00
  C7                      1.00   0.00  0.00  0.00  0.91  0.09  0.00  0.00  0.97  0.00
  C8                      1.00   0.00  0.00  0.00  0.00  1.00  0.00  0.00  0.00  0.00
  C9                      1.00   0.00  0.00  0.00  1.00  0.00  0.00  0.00  1.00  0.00
  
  
  *************************
  Conduit Surcharge Summary
  *************************
  
  ----------------------------------------------------------------------------
                                                           Hours        Hours 
                         --------- Hours Full --------   Above Full   Capacity
  Conduit                Both Ends  Upstream  Dnstream   Normal Flow   Limited
  ----------------------------------------------------------------------------
  C10                         0.01      0.01      5.46      0.01         0.01
  C13                         0.01      0.01      5.63      0.01         0.01
  C18                         0.01      0.01      3.92      0.01         0.01
  C21                         0.01      0.08      0.01      0.06         0.01
  C23                         0.01      0.01      8.59      0.01         0.01
  C4                          0.01      0.01      8.29      0.01         0.01
  C7                          0.01      0.01      8.52      0.01         0.01
  

  Analysis begun on:  Sun Jul 17 21:42:44 2022
  Analysis ended on:  Sun Jul 17 21:42:46 2022
  Total elapsed time: 00:00:02