
  EPA STORM WATER MANAGEMENT MODEL - VERSION 5.1 (Build 5.3.0.dev0)
  --------------------------------------------------------------

  
  *********************************************************
  NOTE: The summary statistics displayed in this report are
  based on results found at every computational time step,  
  not just on results from each reporting time step.
  *********************************************************
  
  ****************
  Analysis Options
  ****************
  Flow Units ............... CMS
  Process Models:
    Rainfall/Runoff ........ YES
    RDII ................... NO
    Snowmelt ............... NO
    Groundwater ............ NO
    Flow Routing ........... YES
    Ponding Allowed ........ NO
    Water Quality .......... NO
  Infiltration Method ...... HORTON
  Flow Routing Method ...... DYNWAVE
  Surcharge Method ......... EXTRAN
  Starting Date ............ 07/18/2007 12:15:00
  Ending Date .............. 07/18/2007 18:40:00
  Antecedent Dry Days ...... 0.0
  Report Time Step ......... 00:05:00
  Wet Time Step ............ 00:05:00
  Dry Time Step ............ 01:00:00
  Routing Time Step ........ 30.00 sec
  Variable Time Step ....... YES
  Maximum Trials ........... 8
  Number of Threads ........ 1
  Head Tolerance ........... 0.001500 m
  
  
  **************************        Volume         Depth
  Runoff Quantity Continuity     hectare-m            mm
  **************************     ---------       -------
  Total Precipitation ......         2.178        12.086
  Evaporation Loss .........         0.000         0.000
  Infiltration Loss ........         0.000         0.000
  Surface Runoff ...........         2.145        11.904
  Final Storage ............         0.039         0.215
  Continuity Error (%) .....        -0.274
  
  
  **************************        Volume        Volume
  Flow Routing Continuity        hectare-m      10^6 ltr
  **************************     ---------     ---------
  Dry Weather Inflow .......         0.285         2.846
  Wet Weather Inflow .......         2.146        21.457
  Groundwater Inflow .......         0.000         0.000
  RDII Inflow ..............         0.000         0.000
  External Inflow ..........         0.000         0.000
  External Outflow .........         0.464         4.644
  Flooding Loss ............         0.875         8.749
  Evaporation Loss .........         0.000         0.000
  Exfiltration Loss ........         0.000         0.000
  Initial Stored Volume ....         0.000         0.000
  Final Stored Volume ......         0.812         8.122
  Continuity Error (%) .....        11.474
  
  
  *************************
  Highest Continuity Errors
  *************************
  Node T2 (35.14%)
  Node T4 (24.13%)
  Node T5 (17.98%)
  Node T3 (17.93%)
  Node T6 (15.92%)
  
  
  ***************************
  Time-Step Critical Elements
  ***************************
  Link C15 (62.45%)
  Link C21 (3.33%)
  
  
  ********************************
  Highest Flow Instability Indexes
  ********************************
  Link C13 (6)
  Link C15 (3)
  Link C11 (3)
  Link C5 (3)
  Link C19 (2)
  
  
  *************************
  Routing Time Step Summary
  *************************
  Minimum Time Step           :     0.04 sec
  Average Time Step           :    21.82 sec
  Maximum Time Step           :    30.00 sec
  Percent in Steady State     :     7.70
  Average Iterations per Step :     3.12
  Percent Not Converging      :     2.56
  
  
  ***************************
  Subcatchment Runoff Summary
  ***************************
  
  ------------------------------------------------------------------------------------------------------------------------------
                            Total      Total      Total      Total     Imperv       Perv      Total       Total     Peak  Runoff
                           Precip      Runon       Evap      Infil     Runoff     Runoff     Runoff      Runoff   Runoff   Coeff
  Subcatchment                 mm         mm         mm         mm         mm         mm         mm    10^6 ltr      CMS
  ------------------------------------------------------------------------------------------------------------------------------
  SC01                      12.81       0.00       0.00       0.00      12.73       0.00      12.73        4.20     1.51   0.994
  SC010                     12.81       0.00       0.00       0.00      12.66       0.00      12.66        1.49     0.47   0.988
  SC02                      10.98       0.00       0.00       0.00      10.88       0.00      10.88        2.47     0.59   0.991
  SC03                      12.20       0.00       0.00       0.00      12.14       0.00      12.14        2.19     0.62   0.995
  SC04                      10.98       0.00       0.00       0.00      10.68       0.00      10.68        0.74     0.14   0.972
  SC05                      12.81       0.00       0.00       0.00      12.71       0.00      12.71        1.98     0.69   0.992
  SC06                      11.81       0.00       0.00       0.00      11.38       0.00      11.38        3.71     0.81   0.964
  SC07                      10.98       0.00       0.00       0.00      10.68       0.00      10.68        0.51     0.10   0.973
  SC08                      12.20       0.00       0.00       0.00      12.04       0.00      12.04        3.37     0.76   0.987
  SC09                      11.81       0.00       0.00       0.00      11.58       0.00      11.58        0.80     0.20   0.981
  
  
  ******************
  Node Depth Summary
  ******************
  
  ---------------------------------------------------------------------------------
                                 Average  Maximum  Maximum  Time of Max    Reported
                                   Depth    Depth      HGL   Occurrence   Max Depth
  Node                 Type       Meters   Meters   Meters  days hr:min      Meters
  ---------------------------------------------------------------------------------
  CSO10                JUNCTION     0.26     1.00    31.00     0  03:02        1.00
  CSO7                 JUNCTION     0.30     1.20    35.20     0  02:33        1.20
  CSO8                 JUNCTION     0.52     2.00    34.00     0  02:05        2.00
  CSO9                 JUNCTION     0.42     2.00    42.00     0  02:21        2.00
  J1                   JUNCTION     0.11     0.28    34.28     0  03:10        0.27
  J10                  JUNCTION     0.16     0.31    29.31     0  02:11        0.31
  J11                  JUNCTION     0.17     0.30    31.30     0  02:32        0.30
  J12                  JUNCTION     0.57     1.01    27.01     0  04:15        1.01
  J13                  JUNCTION     0.10     0.21    29.21     0  02:40        0.21
  J14                  JUNCTION     0.13     0.19    20.19     0  03:19        0.19
  J15                  JUNCTION     0.23     0.46    15.46     0  03:14        0.46
  J16                  JUNCTION     0.11     0.30    30.30     0  03:10        0.29
  J17                  JUNCTION     0.07     0.14    20.14     0  03:05        0.14
  J18                  JUNCTION     0.09     0.16    29.16     0  03:25        0.16
  J19                  JUNCTION     0.14     0.17     8.17     0  02:26        0.17
  J2                   JUNCTION     0.06     0.08    25.08     0  04:09        0.08
  J3                   JUNCTION     0.12     0.17    18.17     0  03:57        0.17
  J4                   JUNCTION     0.24     1.08    34.08     0  02:34        0.81
  J5                   JUNCTION     0.09     0.16    32.16     0  02:40        0.16
  J6                   JUNCTION     0.07     0.12    25.12     0  03:55        0.12
  J7                   JUNCTION     0.13     0.23    39.23     0  02:47        0.23
  J8                   JUNCTION     0.16     0.32    36.32     0  02:30        0.32
  J9                   JUNCTION     0.11     0.16    29.16     0  03:40        0.16
  Out_to_WWTP          OUTFALL      0.14     0.17     6.17     0  06:02        0.17
  T1                   STORAGE      3.47     5.00    15.00     0  02:25        5.00
  T2                   STORAGE      2.94     5.00    26.00     0  03:28        5.00
  T3                   STORAGE      3.27     5.00    27.00     0  03:14        5.00
  T4                   STORAGE      2.64     4.66    31.66     0  04:49        4.66
  T5                   STORAGE      3.13     5.00    32.00     0  03:03        5.00
  T6                   STORAGE      3.35     5.00    36.00     0  02:33        5.00
  
  
  *******************
  Node Inflow Summary
  *******************
  
  -------------------------------------------------------------------------------------------------
                                  Maximum  Maximum                  Lateral       Total        Flow
                                  Lateral    Total  Time of Max      Inflow      Inflow     Balance
                                   Inflow   Inflow   Occurrence      Volume      Volume       Error
  Node                 Type           CMS      CMS  days hr:min    10^6 ltr    10^6 ltr     Percent
  -------------------------------------------------------------------------------------------------
  CSO10                JUNCTION     0.476    0.476     0  03:10        1.59        1.59      -0.238
  CSO7                 JUNCTION     0.108    0.108     0  02:40       0.716       0.717      -0.100
  CSO8                 JUNCTION     0.773    0.773     0  02:10        3.58        3.59      -0.088
  CSO9                 JUNCTION     0.211    0.211     0  02:30        0.94       0.941      -0.101
  J1                   JUNCTION     0.704    0.704     0  03:10        2.39         2.4      -0.488
  J10                  JUNCTION     0.634    1.121     0  02:10        2.46        5.83      -0.402
  J11                  JUNCTION     0.000    0.486     0  02:32           0        3.35      -0.372
  J12                  JUNCTION     0.000    1.153     0  02:12           0        7.87       8.876
  J13                  JUNCTION     0.607    0.607     0  02:40        2.81        2.82      -0.511
  J14                  JUNCTION     0.000    0.190     0  03:16           0        2.61       0.342
  J15                  JUNCTION     0.000    1.957     0  03:10           0        10.6      -0.107
  J16                  JUNCTION     1.524    1.524     0  03:10         4.6        4.62      -0.603
  J17                  JUNCTION     0.000    0.140     0  04:05           0        0.64       4.069
  J18                  JUNCTION     0.000    0.202     0  03:25           0         1.4      -0.552
  J19                  JUNCTION     0.000    0.271     0  02:25           0        4.66       0.267
  J2                   JUNCTION     0.000    0.039     0  03:04           0       0.663       0.811
  J3                   JUNCTION     0.000    0.305     0  03:55           0        3.97       0.720
  J4                   JUNCTION     0.000    0.081     0  02:33           0       0.673      -0.185
  J5                   JUNCTION     0.147    0.218     0  02:40       0.829         1.5      -0.247
  J6                   JUNCTION     0.000    0.076     0  03:53           0       0.706      -0.734
  J7                   JUNCTION     0.000    0.127     0  02:47           0       0.873      -0.113
  J8                   JUNCTION     0.838    0.964     0  02:30        4.38        5.26      -0.189
  J9                   JUNCTION     0.000    0.175     0  02:33           0        2.05       3.050
  Out_to_WWTP          OUTFALL      0.000    0.271     0  02:27           0        4.64       0.000
  T1                   STORAGE      0.000    1.824     0  03:14           0        10.6       7.911
  T2                   STORAGE      0.000    0.602     0  02:40           0        2.83      54.188
  T3                   STORAGE      0.000    1.117     0  02:14           0        7.22      21.851
  T4                   STORAGE      0.000    0.216     0  02:41           0        1.51      31.803
  T5                   STORAGE      0.000    0.701     0  03:10           0        2.41      21.925
  T6                   STORAGE      0.000    0.956     0  02:30           0        5.27      18.933
  
  
  **********************
  Node Surcharge Summary
  **********************
  
  Surcharging occurs when water rises above the top of the highest conduit.
  ---------------------------------------------------------------------
                                               Max. Height   Min. Depth
                                   Hours       Above Crown    Below Rim
  Node                 Type      Surcharged         Meters       Meters
  ---------------------------------------------------------------------
  CSO10                JUNCTION        0.56          0.560        0.000
  CSO7                 JUNCTION        0.84          0.945        0.000
  CSO8                 JUNCTION        1.11          1.547        0.000
  CSO9                 JUNCTION        0.84          1.682        0.000
  J4                   JUNCTION        0.85          0.776        0.924
  
  
  *********************
  Node Flooding Summary
  *********************
  
  Flooding refers to all water that overflows a node, whether it ponds or not.
  --------------------------------------------------------------------------
                                                             Total   Maximum
                                 Maximum   Time of Max       Flood    Ponded
                        Hours       Rate    Occurrence      Volume     Depth
  Node                 Flooded       CMS   days hr:min    10^6 ltr    Meters
  --------------------------------------------------------------------------
  CSO10                   0.39     0.274      0  03:10       0.202     0.000
  CSO7                    0.72     0.036      0  02:40       0.044     0.000
  CSO8                    0.45     0.285      0  02:10       0.238     0.000
  CSO9                    0.44     0.084      0  02:30       0.069     0.000
  T1                      3.49     1.554      0  03:14       4.514     0.000
  T2                      2.29     0.123      0  03:28       0.197     0.000
  T3                      1.56     0.577      0  03:14       0.826     0.000
  T5                      1.47     0.661      0  03:11       0.871     0.000
  T6                      2.32     0.803      0  02:35       1.780     0.000
  
  
  **********************
  Storage Volume Summary
  **********************
  
  --------------------------------------------------------------------------------------------------
                         Average     Avg  Evap Exfil       Maximum     Max    Time of Max    Maximum
                          Volume    Pcnt  Pcnt  Pcnt        Volume    Pcnt     Occurrence    Outflow
  Storage Unit           1000 m3    Full  Loss  Loss       1000 m3    Full    days hr:min        CMS
  --------------------------------------------------------------------------------------------------
  T1                       0.485      69     0     0         0.700     100       0  02:25      0.271
  T2                       0.587      59     0     0         1.000     100       0  03:28      0.140
  T3                       1.698      65     0     0         2.600     100       0  03:14      0.234
  T4                       0.264      53     0     0         0.466      93       0  04:49      0.076
  T5                       0.313      63     0     0         0.500     100       0  03:03      0.039
  T6                       0.402      67     0     0         0.600     100       0  02:33      0.175
  
  
  ***********************
  Outfall Loading Summary
  ***********************
  
  -----------------------------------------------------------
                         Flow       Avg       Max       Total
                         Freq      Flow      Flow      Volume
  Outfall Node           Pcnt       CMS       CMS    10^6 ltr
  -----------------------------------------------------------
  Out_to_WWTP           99.14     0.206     0.271       4.644
  -----------------------------------------------------------
  System                99.14     0.206     0.271       4.644
  
  
  ********************
  Link Flow Summary
  ********************
  
  -----------------------------------------------------------------------------
                                 Maximum  Time of Max   Maximum    Max/    Max/
                                  |Flow|   Occurrence   |Veloc|    Full    Full
  Link                 Type          CMS  days hr:min     m/sec    Flow   Depth
  -----------------------------------------------------------------------------
  C1                   CONDUIT     0.039     0  04:10      0.98    0.01    0.12
  C10                  CONDUIT     0.956     0  02:30      1.87    0.10    0.61
  C11                  CONDUIT     0.305     0  03:57      1.93    0.02    0.15
  C12                  CONDUIT     0.175     0  03:40      0.75    0.01    0.29
  C13                  CONDUIT     1.117     0  02:14      1.64    0.07    0.75
  C14                  CONDUIT     0.271     0  02:27      2.08    0.02    0.09
  C15                  CONDUIT     0.486     0  02:32      3.44    1.55    0.83
  C16                  CONDUIT     0.488     0  02:09      1.79    0.05    0.15
  C17                  CONDUIT     1.083     0  02:11      3.30    0.05    0.30
  C18                  CONDUIT     0.602     0  02:40      3.12    0.02    0.55
  C19                  CONDUIT     0.124     0  03:05      0.91    0.04    0.28
  C2                   CONDUIT     0.076     0  03:55      1.70    0.09    0.24
  C20                  CONDUIT     1.514     0  03:10      3.87    0.05    0.19
  C21                  CONDUIT     0.202     0  03:25      1.84    1.16    0.69
  C22                  CONDUIT     0.202     0  03:26      1.46    0.09    0.39
  C23                  CONDUIT     1.824     0  03:14      1.49    0.20    0.65
  C3                   CONDUIT     0.192     0  03:20      2.12    0.07    0.18
  C4                   CONDUIT     0.701     0  03:10      3.04    0.17    0.64
  C5                   CONDUIT     0.081     0  02:33      1.58    1.39    1.00
  C6                   CONDUIT     0.071     0  02:40      1.29    1.13    0.76
  C7                   CONDUIT     0.216     0  02:41      1.62    0.05    0.58
  C8                   CONDUIT     0.127     0  02:47      1.78    1.60    0.86
  C9                   CONDUIT     0.127     0  02:47      1.26    0.43    0.55
  V1                   ORIFICE     0.271     0  02:25                      1.00
  V2                   ORIFICE     0.140     0  04:05                      1.00
  V3                   ORIFICE     0.190     0  03:16                      1.00
  V4                   ORIFICE     0.076     0  03:53                      1.00
  V5                   ORIFICE     0.039     0  03:04                      1.00
  V6                   ORIFICE     0.175     0  02:33                      1.00
  
  
  ***************************
  Flow Classification Summary
  ***************************
  
  -------------------------------------------------------------------------------------
                      Adjusted    ---------- Fraction of Time in Flow Class ---------- 
                       /Actual         Up    Down  Sub   Sup   Up    Down  Norm  Inlet 
  Conduit               Length    Dry  Dry   Dry   Crit  Crit  Crit  Crit  Ltd   Ctrl  
  -------------------------------------------------------------------------------------
  C1                      1.00   0.00  0.00  0.00  0.76  0.24  0.00  0.00  0.94  0.00
  C10                     1.00   0.00  0.00  0.00  0.96  0.04  0.00  0.00  0.97  0.00
  C11                     1.00   0.00  0.00  0.00  0.48  0.51  0.00  0.00  1.00  0.00
  C12                     1.00   0.00  0.00  0.00  1.00  0.00  0.00  0.00  1.00  0.00
  C13                     1.00   0.00  0.00  0.00  0.90  0.10  0.00  0.00  0.31  0.00
  C14                     1.00   0.01  0.00  0.00  0.01  0.98  0.00  0.00  0.10  0.00
  C15                     1.00   0.00  0.00  0.00  0.00  1.00  0.00  0.00  0.02  0.00
  C16                     1.00   0.00  0.00  0.00  0.20  0.80  0.00  0.00  0.31  0.00
  C17                     1.00   0.00  0.00  0.00  0.51  0.49  0.00  0.00  0.95  0.00
  C18                     1.00   0.00  0.00  0.00  0.96  0.04  0.00  0.00  0.97  0.00
  C19                     1.00   0.00  0.00  0.00  1.00  0.00  0.00  0.00  1.00  0.00
  C2                      1.00   0.00  0.00  0.00  0.44  0.56  0.00  0.00  0.97  0.00
  C20                     1.00   0.00  0.00  0.00  0.27  0.73  0.00  0.00  0.98  0.00
  C21                     1.00   0.00  0.00  0.00  0.02  0.98  0.00  0.00  0.00  0.00
  C22                     1.00   0.00  0.00  0.00  0.65  0.35  0.00  0.00  1.00  0.00
  C23                     1.00   0.00  0.00  0.00  0.92  0.08  0.00  0.00  0.94  0.00
  C3                      1.00   0.00  0.00  0.00  0.04  0.95  0.00  0.00  0.22  0.00
  C4                      1.00   0.00  0.00  0.00  0.97  0.03  0.00  0.00  0.98  0.00
  C5                      1.00   0.00  0.00  0.00  0.93  0.07  0.00  0.00  0.84  0.00
  C6                      1.00   0.00  0.00  0.00  0.24  0.76  0.00  0.00  0.00  0.00
  C7                      1.00   0.00  0.00  0.00  0.96  0.04  0.00  0.00  0.97  0.00
  C8                      1.00   0.00  0.00  0.00  0.23  0.77  0.00  0.00  0.00  0.00
  C9                      1.00   0.00  0.00  0.00  1.00  0.00  0.00  0.00  1.00  0.00
  
  
  *************************
  Conduit Surcharge Summary
  *************************
  
  ----------------------------------------------------------------------------
                                                           Hours        Hours 
                         --------- Hours Full --------   Above Full   Capacity
  Conduit                Both Ends  Upstream  Dnstream   Normal Flow   Limited
  ----------------------------------------------------------------------------
  C10                         0.01      0.01      4.54      0.01         0.01
  C13                         0.01      0.01      4.35      0.01         0.01
  C15                         0.01      1.11      0.01      1.27         0.01
  C18                         0.01      0.01      4.00      0.01         0.01
  C21                         0.01      0.56      0.01      0.53         0.01
  C23                         0.01      0.01      4.55      0.01         0.01
  C4                          0.01      0.01      4.64      0.01         0.01
  C5                          0.82      0.84      1.06      0.99         0.80
  C6                          0.01      0.85      0.01      0.73         0.01
  C7                          0.01      0.01      4.46      0.01         0.01
  C8                          0.01      0.84      0.01      0.83         0.01
  

  Analysis begun on:  Sun Jul 17 19:59:57 2022
  Analysis ended on:  Sun Jul 17 19:59:58 2022
  Total elapsed time: 00:00:01