
  EPA STORM WATER MANAGEMENT MODEL - VERSION 5.1 (Build 5.3.0.dev0)
  --------------------------------------------------------------

  
  *********************************************************
  NOTE: The summary statistics displayed in this report are
  based on results found at every computational time step,  
  not just on results from each reporting time step.
  *********************************************************
  
  ****************
  Analysis Options
  ****************
  Flow Units ............... CMS
  Process Models:
    Rainfall/Runoff ........ YES
    RDII ................... NO
    Snowmelt ............... NO
    Groundwater ............ NO
    Flow Routing ........... YES
    Ponding Allowed ........ NO
    Water Quality .......... NO
  Infiltration Method ...... HORTON
  Flow Routing Method ...... DYNWAVE
  Surcharge Method ......... EXTRAN
  Starting Date ............ 11/22/2008 15:15:00
  Ending Date .............. 11/22/2008 19:35:00
  Antecedent Dry Days ...... 0.0
  Report Time Step ......... 00:05:00
  Wet Time Step ............ 00:05:00
  Dry Time Step ............ 01:00:00
  Routing Time Step ........ 30.00 sec
  Variable Time Step ....... YES
  Maximum Trials ........... 8
  Number of Threads ........ 1
  Head Tolerance ........... 0.001500 m
  
  
  **************************        Volume         Depth
  Runoff Quantity Continuity     hectare-m            mm
  **************************     ---------       -------
  Total Precipitation ......         1.200         6.658
  Evaporation Loss .........         0.000         0.000
  Infiltration Loss ........         0.000         0.000
  Surface Runoff ...........         1.166         6.470
  Final Storage ............         0.049         0.272
  Continuity Error (%) .....        -1.263
  
  
  **************************        Volume        Volume
  Flow Routing Continuity        hectare-m      10^6 ltr
  **************************     ---------     ---------
  Dry Weather Inflow .......         0.156         1.562
  Wet Weather Inflow .......         1.165        11.649
  Groundwater Inflow .......         0.000         0.000
  RDII Inflow ..............         0.000         0.000
  External Inflow ..........         0.000         0.000
  External Outflow .........         0.242         2.415
  Flooding Loss ............         0.424         4.245
  Evaporation Loss .........         0.000         0.000
  Exfiltration Loss ........         0.000         0.000
  Initial Stored Volume ....         0.000         0.000
  Final Stored Volume ......         0.497         4.967
  Continuity Error (%) .....        11.993
  
  
  *************************
  Highest Continuity Errors
  *************************
  Node T2 (42.98%)
  Node T4 (30.28%)
  Node T3 (27.36%)
  Node T5 (24.95%)
  Node T6 (22.22%)
  
  
  ***************************
  Time-Step Critical Elements
  ***************************
  Link C21 (22.24%)
  Link C5 (2.98%)
  Link C8 (2.45%)
  
  
  ********************************
  Highest Flow Instability Indexes
  ********************************
  Link C5 (2)
  Link C12 (2)
  Link C13 (2)
  Link C20 (2)
  Link C4 (2)
  
  
  *************************
  Routing Time Step Summary
  *************************
  Minimum Time Step           :     0.09 sec
  Average Time Step           :    27.26 sec
  Maximum Time Step           :    30.00 sec
  Percent in Steady State     :     2.50
  Average Iterations per Step :     2.54
  Percent Not Converging      :     5.20
  
  
  ***************************
  Subcatchment Runoff Summary
  ***************************
  
  ------------------------------------------------------------------------------------------------------------------------------
                            Total      Total      Total      Total     Imperv       Perv      Total       Total     Peak  Runoff
                           Precip      Runon       Evap      Infil     Runoff     Runoff     Runoff      Runoff   Runoff   Coeff
  Subcatchment                 mm         mm         mm         mm         mm         mm         mm    10^6 ltr      CMS
  ------------------------------------------------------------------------------------------------------------------------------
  SC01                      10.29       0.00       0.00       0.00      10.26       0.00      10.26        3.39     2.22   0.997
  SC010                     10.29       0.00       0.00       0.00      10.15       0.00      10.15        1.19     0.74   0.986
  SC02                       6.57       0.00       0.00       0.00       6.45       0.00       6.45        1.47     1.03   0.982
  SC03                       0.14       0.00       0.00       0.00       0.08       0.00       0.08        0.01     0.00   0.547
  SC04                       6.57       0.00       0.00       0.00       6.10       0.00       6.10        0.42     0.21   0.928
  SC05                      10.29       0.00       0.00       0.00      10.23       0.00      10.23        1.60     1.03   0.994
  SC06                       8.78       0.00       0.00       0.00       8.24       0.00       8.24        2.68     1.54   0.939
  SC07                       6.57       0.00       0.00       0.00       6.10       0.00       6.10        0.29     0.15   0.928
  SC08                       0.14       0.00       0.00       0.00       0.06       0.00       0.06        0.02     0.00   0.412
  SC09                       8.78       0.00       0.00       0.00       8.60       0.00       8.60        0.59     0.46   0.980
  
  
  ******************
  Node Depth Summary
  ******************
  
  ---------------------------------------------------------------------------------
                                 Average  Maximum  Maximum  Time of Max    Reported
                                   Depth    Depth      HGL   Occurrence   Max Depth
  Node                 Type       Meters   Meters   Meters  days hr:min      Meters
  ---------------------------------------------------------------------------------
  CSO10                JUNCTION     0.26     1.00    31.00     0  01:53        1.00
  CSO7                 JUNCTION     0.24     1.20    35.20     0  02:11        1.20
  CSO8                 JUNCTION     0.05     0.07    32.07     0  00:11        0.07
  CSO9                 JUNCTION     0.38     2.00    42.00     0  02:01        2.00
  J1                   JUNCTION     0.10     0.34    34.34     0  02:10        0.34
  J10                  JUNCTION     0.05     0.05    29.05     0  00:30        0.05
  J11                  JUNCTION     0.04     0.05    31.05     0  00:32        0.05
  J12                  JUNCTION     0.10     0.15    26.15     0  02:40        0.15
  J13                  JUNCTION     0.08     0.27    29.27     0  02:16        0.26
  J14                  JUNCTION     0.07     0.11    20.11     0  03:10        0.11
  J15                  JUNCTION     0.18     0.53    15.53     0  02:11        0.52
  J16                  JUNCTION     0.10     0.36    30.36     0  02:00        0.35
  J17                  JUNCTION     0.04     0.13    20.13     0  02:40        0.13
  J18                  JUNCTION     0.07     0.16    29.16     0  02:24        0.16
  J19                  JUNCTION     0.12     0.17     8.17     0  02:09        0.17
  J2                   JUNCTION     0.06     0.08    25.08     0  02:56        0.08
  J3                   JUNCTION     0.08     0.12    18.12     0  02:45        0.12
  J4                   JUNCTION     0.18     0.90    33.90     0  02:15        0.74
  J5                   JUNCTION     0.07     0.18    32.18     0  02:20        0.18
  J6                   JUNCTION     0.05     0.10    25.10     0  02:45        0.10
  J7                   JUNCTION     0.10     0.23    39.23     0  02:24        0.23
  J8                   JUNCTION     0.14     0.42    36.42     0  02:10        0.42
  J9                   JUNCTION     0.10     0.17    29.17     0  02:23        0.17
  Out_to_WWTP          OUTFALL      0.12     0.17     6.17     0  03:07        0.17
  T1                   STORAGE      2.66     5.00    15.00     0  02:08        5.00
  T2                   STORAGE      1.60     3.62    24.62     0  04:20        3.62
  T3                   STORAGE      0.44     1.24    23.24     0  04:20        1.24
  T4                   STORAGE      1.32     3.18    30.18     0  04:13        3.18
  T5                   STORAGE      2.78     5.00    32.00     0  02:11        5.00
  T6                   STORAGE      2.56     5.00    36.00     0  02:19        5.00
  
  
  *******************
  Node Inflow Summary
  *******************
  
  -------------------------------------------------------------------------------------------------
                                  Maximum  Maximum                  Lateral       Total        Flow
                                  Lateral    Total  Time of Max      Inflow      Inflow     Balance
                                   Inflow   Inflow   Occurrence      Volume      Volume       Error
  Node                 Type           CMS      CMS  days hr:min    10^6 ltr    10^6 ltr     Percent
  -------------------------------------------------------------------------------------------------
  CSO10                JUNCTION     0.745    0.745     0  02:10        1.25        1.25       0.018
  CSO7                 JUNCTION     0.155    0.155     0  02:20       0.406       0.406       0.108
  CSO8                 JUNCTION     0.013    0.013     0  00:10       0.119       0.119       0.041
  CSO9                 JUNCTION     0.469    0.469     0  02:05       0.672       0.672       0.073
  J1                   JUNCTION     1.042    1.042     0  02:10        1.82        1.82      -0.019
  J10                  JUNCTION     0.014    0.025     0  00:24       0.167       0.286       1.150
  J11                  JUNCTION     0.000    0.013     0  00:12           0       0.119       0.009
  J12                  JUNCTION     0.000    0.198     0  02:26           0        1.56       0.862
  J13                  JUNCTION     1.045    1.045     0  02:15        1.66        1.66      -0.464
  J14                  JUNCTION     0.000    0.071     0  03:10           0       0.482       0.573
  J15                  JUNCTION     0.000    2.525     0  02:10           0        5.56       0.987
  J16                  JUNCTION     2.239    2.239     0  02:00         3.6         3.6      -0.095
  J17                  JUNCTION     0.000    0.109     0  02:40           0       0.225       2.288
  J18                  JUNCTION     0.000    0.202     0  02:24           0       0.678       0.227
  J19                  JUNCTION     0.000    0.271     0  02:08           0        2.43       0.467
  J2                   JUNCTION     0.000    0.039     0  02:11           0       0.375       1.460
  J3                   JUNCTION     0.000    0.153     0  02:45           0        1.09       2.244
  J4                   JUNCTION     0.000    0.085     0  02:13           0       0.338       1.114
  J5                   JUNCTION     0.218    0.290     0  02:20       0.472       0.806       0.249
  J6                   JUNCTION     0.000    0.054     0  02:45           0       0.242       1.472
  J7                   JUNCTION     0.000    0.127     0  02:24           0       0.434       0.873
  J8                   JUNCTION     1.559    1.683     0  02:10        3.06        3.49       0.124
  J9                   JUNCTION     0.000    0.175     0  02:19           0        1.29       0.599
  Out_to_WWTP          OUTFALL      0.000    0.271     0  02:10           0        2.42       0.000
  T1                   STORAGE      0.000    2.427     0  02:11           0        5.51      11.208
  T2                   STORAGE      0.000    1.042     0  02:16           0        1.67      75.380
  T3                   STORAGE      0.000    0.196     0  02:40           0        1.55      37.665
  T4                   STORAGE      0.000    0.288     0  02:21           0       0.804      43.440
  T5                   STORAGE      0.000    1.035     0  02:10           0        1.82      33.242
  T6                   STORAGE      0.000    1.673     0  02:10           0        3.49      28.570
  
  
  **********************
  Node Surcharge Summary
  **********************
  
  Surcharging occurs when water rises above the top of the highest conduit.
  ---------------------------------------------------------------------
                                               Max. Height   Min. Depth
                                   Hours       Above Crown    Below Rim
  Node                 Type      Surcharged         Meters       Meters
  ---------------------------------------------------------------------
  CSO10                JUNCTION        0.57          0.560        0.000
  CSO7                 JUNCTION        0.52          0.945        0.000
  CSO9                 JUNCTION        0.53          1.682        0.000
  J4                   JUNCTION        0.49          0.595        1.105
  
  
  *********************
  Node Flooding Summary
  *********************
  
  Flooding refers to all water that overflows a node, whether it ponds or not.
  --------------------------------------------------------------------------
                                                             Total   Maximum
                                 Maximum   Time of Max       Flood    Ponded
                        Hours       Rate    Occurrence      Volume     Depth
  Node                 Flooded       CMS   days hr:min    10^6 ltr    Meters
  --------------------------------------------------------------------------
  CSO10                   0.52     0.543      0  02:10       0.569     0.000
  CSO7                    0.43     0.083      0  02:20       0.068     0.000
  CSO9                    0.39     0.344      0  02:05       0.237     0.000
  T1                      0.84     2.156      0  02:11       2.006     0.000
  T5                      0.89     0.932      0  02:11       0.518     0.000
  T6                      0.84     0.876      0  02:19       0.844     0.000
  
  
  **********************
  Storage Volume Summary
  **********************
  
  --------------------------------------------------------------------------------------------------
                         Average     Avg  Evap Exfil       Maximum     Max    Time of Max    Maximum
                          Volume    Pcnt  Pcnt  Pcnt        Volume    Pcnt     Occurrence    Outflow
  Storage Unit           1000 m3    Full  Loss  Loss       1000 m3    Full    days hr:min        CMS
  --------------------------------------------------------------------------------------------------
  T1                       0.372      53     0     0         0.700     100       0  02:08      0.271
  T2                       0.320      32     0     0         0.724      72       0  04:20      0.109
  T3                       0.227       9     0     0         0.645      25       0  04:20      0.071
  T4                       0.132      26     0     0         0.318      64       0  04:13      0.054
  T5                       0.278      56     0     0         0.500     100       0  02:11      0.039
  T6                       0.307      51     0     0         0.600     100       0  02:19      0.175
  
  
  ***********************
  Outfall Loading Summary
  ***********************
  
  -----------------------------------------------------------
                         Flow       Avg       Max       Total
                         Freq      Flow      Flow      Volume
  Outfall Node           Pcnt       CMS       CMS    10^6 ltr
  -----------------------------------------------------------
  Out_to_WWTP           98.07     0.164     0.271       2.415
  -----------------------------------------------------------
  System                98.07     0.164     0.271       2.415
  
  
  ********************
  Link Flow Summary
  ********************
  
  -----------------------------------------------------------------------------
                                 Maximum  Time of Max   Maximum    Max/    Max/
                                  |Flow|   Occurrence   |Veloc|    Full    Full
  Link                 Type          CMS  days hr:min     m/sec    Flow   Depth
  -----------------------------------------------------------------------------
  C1                   CONDUIT     0.039     0  02:55      1.19    0.01    0.10
  C10                  CONDUIT     1.673     0  02:10      2.01    0.17    0.64
  C11                  CONDUIT     0.150     0  02:45      1.35    0.01    0.16
  C12                  CONDUIT     0.177     0  02:26      1.61    0.01    0.08
  C13                  CONDUIT     0.196     0  02:40      1.57    0.01    0.33
  C14                  CONDUIT     0.271     0  02:10      2.08    0.02    0.09
  C15                  CONDUIT     0.013     0  00:12      1.64    0.04    0.13
  C16                  CONDUIT     0.012     0  00:32      0.55    0.00    0.03
  C17                  CONDUIT     0.025     0  00:30      1.10    0.00    0.05
  C18                  CONDUIT     1.042     0  02:16      3.92    0.04    0.56
  C19                  CONDUIT     0.108     0  02:40      1.05    0.04    0.31
  C2                   CONDUIT     0.054     0  02:45      1.57    0.06    0.19
  C20                  CONDUIT     2.222     0  02:00      4.82    0.07    0.22
  C21                  CONDUIT     0.202     0  02:24      1.89    1.16    0.69
  C22                  CONDUIT     0.202     0  02:24      1.63    0.09    0.43
  C23                  CONDUIT     2.427     0  02:11      2.07    0.27    0.68
  C3                   CONDUIT     0.071     0  03:10      1.42    0.03    0.11
  C4                   CONDUIT     1.035     0  02:10      3.48    0.25    0.67
  C5                   CONDUIT     0.085     0  02:13      1.67    1.46    1.00
  C6                   CONDUIT     0.073     0  02:20      1.29    1.15    0.80
  C7                   CONDUIT     0.288     0  02:21      1.41    0.07    0.59
  C8                   CONDUIT     0.127     0  02:24      1.93    1.60    0.86
  C9                   CONDUIT     0.127     0  02:24      1.23    0.43    0.65
  V1                   ORIFICE     0.271     0  02:08                      1.00
  V2                   ORIFICE     0.109     0  02:40                      1.00
  V3                   ORIFICE     0.071     0  03:10                      1.00
  V4                   ORIFICE     0.054     0  02:45                      1.00
  V5                   ORIFICE     0.039     0  02:11                      1.00
  V6                   ORIFICE     0.175     0  02:19                      1.00
  
  
  ***************************
  Flow Classification Summary
  ***************************
  
  -------------------------------------------------------------------------------------
                      Adjusted    ---------- Fraction of Time in Flow Class ---------- 
                       /Actual         Up    Down  Sub   Sup   Up    Down  Norm  Inlet 
  Conduit               Length    Dry  Dry   Dry   Crit  Crit  Crit  Crit  Ltd   Ctrl  
  -------------------------------------------------------------------------------------
  C1                      1.00   0.00  0.00  0.00  0.27  0.73  0.00  0.00  0.90  0.00
  C10                     1.00   0.00  0.00  0.00  0.89  0.11  0.00  0.00  0.95  0.00
  C11                     1.00   0.00  0.00  0.00  0.37  0.62  0.00  0.00  1.00  0.00
  C12                     1.00   0.00  0.00  0.00  0.23  0.76  0.00  0.00  0.61  0.00
  C13                     1.00   0.00  0.00  0.00  0.79  0.21  0.00  0.00  0.84  0.00
  C14                     1.00   0.01  0.01  0.00  0.01  0.97  0.00  0.00  0.23  0.00
  C15                     1.00   0.00  0.00  0.00  0.07  0.93  0.00  0.00  0.10  0.00
  C16                     1.00   0.00  0.00  0.00  1.00  0.00  0.00  0.00  0.58  0.00
  C17                     1.00   0.00  0.00  0.00  0.70  0.30  0.00  0.00  0.95  0.00
  C18                     1.00   0.00  0.00  0.00  0.90  0.10  0.00  0.00  0.95  0.00
  C19                     1.00   0.00  0.00  0.00  1.00  0.00  0.00  0.00  1.00  0.00
  C2                      1.00   0.00  0.00  0.00  0.38  0.61  0.00  0.00  0.96  0.00
  C20                     1.00   0.00  0.00  0.00  0.48  0.52  0.00  0.00  0.95  0.00
  C21                     1.00   0.00  0.00  0.00  0.01  0.99  0.00  0.00  0.00  0.00
  C22                     1.00   0.00  0.00  0.00  0.86  0.14  0.00  0.00  1.00  0.00
  C23                     1.00   0.00  0.00  0.00  0.78  0.22  0.00  0.00  0.90  0.00
  C3                      1.00   0.01  0.01  0.00  0.10  0.89  0.00  0.00  0.62  0.00
  C4                      1.00   0.00  0.00  0.00  0.92  0.08  0.00  0.00  0.96  0.00
  C5                      1.00   0.00  0.00  0.00  0.84  0.16  0.00  0.00  0.82  0.00
  C6                      1.00   0.00  0.00  0.00  0.19  0.80  0.00  0.00  0.01  0.00
  C7                      1.00   0.00  0.00  0.00  0.90  0.10  0.00  0.00  0.94  0.00
  C8                      1.00   0.00  0.00  0.00  0.17  0.83  0.00  0.00  0.00  0.00
  C9                      1.00   0.00  0.00  0.00  1.00  0.00  0.00  0.00  1.00  0.00
  
  
  *************************
  Conduit Surcharge Summary
  *************************
  
  ----------------------------------------------------------------------------
                                                           Hours        Hours 
                         --------- Hours Full --------   Above Full   Capacity
  Conduit                Both Ends  Upstream  Dnstream   Normal Flow   Limited
  ----------------------------------------------------------------------------
  C10                         0.01      0.01      2.21      0.01         0.01
  C18                         0.01      0.01      1.95      0.01         0.01
  C21                         0.01      0.57      0.01      0.56         0.01
  C23                         0.01      0.01      2.33      0.01         0.01
  C4                          0.01      0.01      2.38      0.01         0.01
  C5                          0.48      0.52      0.58      0.52         0.47
  C6                          0.01      0.49      0.01      0.42         0.01
  C7                          0.01      0.01      1.99      0.01         0.01
  C8                          0.01      0.53      0.01      0.55         0.01
  

  Analysis begun on:  Sun Jul 17 21:12:03 2022
  Analysis ended on:  Sun Jul 17 21:12:04 2022
  Total elapsed time: 00:00:01