
  EPA STORM WATER MANAGEMENT MODEL - VERSION 5.1 (Build 5.3.0.dev0)
  --------------------------------------------------------------

  
  *********************************************************
  NOTE: The summary statistics displayed in this report are
  based on results found at every computational time step,  
  not just on results from each reporting time step.
  *********************************************************
  
  ****************
  Analysis Options
  ****************
  Flow Units ............... CMS
  Process Models:
    Rainfall/Runoff ........ YES
    RDII ................... NO
    Snowmelt ............... NO
    Groundwater ............ NO
    Flow Routing ........... YES
    Ponding Allowed ........ NO
    Water Quality .......... NO
  Infiltration Method ...... HORTON
  Flow Routing Method ...... DYNWAVE
  Surcharge Method ......... EXTRAN
  Starting Date ............ 10/09/2009 22:30:00
  Ending Date .............. 10/10/2009 04:25:00
  Antecedent Dry Days ...... 0.0
  Report Time Step ......... 00:05:00
  Wet Time Step ............ 00:05:00
  Dry Time Step ............ 01:00:00
  Routing Time Step ........ 30.00 sec
  Variable Time Step ....... YES
  Maximum Trials ........... 8
  Number of Threads ........ 1
  Head Tolerance ........... 0.001500 m
  
  
  **************************        Volume         Depth
  Runoff Quantity Continuity     hectare-m            mm
  **************************     ---------       -------
  Total Precipitation ......         1.389         7.706
  Evaporation Loss .........         0.000         0.000
  Infiltration Loss ........         0.000         0.000
  Surface Runoff ...........         1.367         7.588
  Final Storage ............         0.046         0.258
  Continuity Error (%) .....        -1.812
  
  
  **************************        Volume        Volume
  Flow Routing Continuity        hectare-m      10^6 ltr
  **************************     ---------     ---------
  Dry Weather Inflow .......         0.045         0.446
  Wet Weather Inflow .......         1.368        13.680
  Groundwater Inflow .......         0.000         0.000
  RDII Inflow ..............         0.000         0.000
  External Inflow ..........         0.000         0.000
  External Outflow .........         0.430         4.300
  Flooding Loss ............         0.090         0.904
  Evaporation Loss .........         0.000         0.000
  Exfiltration Loss ........         0.000         0.000
  Initial Stored Volume ....         0.000         0.000
  Final Stored Volume ......         0.699         6.993
  Continuity Error (%) .....        13.656
  
  
  *************************
  Highest Continuity Errors
  *************************
  Node T2 (37.21%)
  Node T6 (30.41%)
  Node T5 (26.40%)
  Node T3 (24.09%)
  Node T4 (18.86%)
  
  
  ***************************
  Time-Step Critical Elements
  ***************************
  Link C15 (49.72%)
  
  
  ********************************
  Highest Flow Instability Indexes
  ********************************
  Link C13 (5)
  Link V3 (4)
  Link C11 (3)
  Link C15 (2)
  Link C3 (2)
  
  
  *************************
  Routing Time Step Summary
  *************************
  Minimum Time Step           :     0.35 sec
  Average Time Step           :    23.57 sec
  Maximum Time Step           :    30.00 sec
  Percent in Steady State     :     2.39
  Average Iterations per Step :     2.69
  Percent Not Converging      :     2.27
  
  
  ***************************
  Subcatchment Runoff Summary
  ***************************
  
  ------------------------------------------------------------------------------------------------------------------------------
                            Total      Total      Total      Total     Imperv       Perv      Total       Total     Peak  Runoff
                           Precip      Runon       Evap      Infil     Runoff     Runoff     Runoff      Runoff   Runoff   Coeff
  Subcatchment                 mm         mm         mm         mm         mm         mm         mm    10^6 ltr      CMS
  ------------------------------------------------------------------------------------------------------------------------------
  SC01                       6.55       0.00       0.00       0.00       6.51       0.00       6.51        2.15     1.04   0.994
  SC010                      6.55       0.00       0.00       0.00       6.41       0.00       6.41        0.75     0.28   0.979
  SC02                       5.33       0.00       0.00       0.00       5.26       0.00       5.26        1.20     0.68   0.986
  SC03                      11.45       0.00       0.00       0.00      11.73       0.00      11.73        2.11     1.28   1.024
  SC04                       5.33       0.00       0.00       0.00       4.99       0.00       4.99        0.34     0.10   0.937
  SC05                       6.55       0.00       0.00       0.00       6.49       0.00       6.49        1.01     0.45   0.990
  SC06                       7.18       0.00       0.00       0.00       6.73       0.00       6.73        2.19     0.67   0.937
  SC07                       5.33       0.00       0.00       0.00       4.99       0.00       4.99        0.24     0.07   0.937
  SC08                      11.45       0.00       0.00       0.00      11.42       0.00      11.42        3.20     1.28   0.998
  SC09                       7.18       0.00       0.00       0.00       6.97       0.00       6.97        0.48     0.22   0.971
  
  
  ******************
  Node Depth Summary
  ******************
  
  ---------------------------------------------------------------------------------
                                 Average  Maximum  Maximum  Time of Max    Reported
                                   Depth    Depth      HGL   Occurrence   Max Depth
  Node                 Type       Meters   Meters   Meters  days hr:min      Meters
  ---------------------------------------------------------------------------------
  CSO10                JUNCTION     0.20     1.00    31.00     0  00:28        1.00
  CSO7                 JUNCTION     0.10     1.09    35.09     0  00:25        0.41
  CSO8                 JUNCTION     0.56     2.00    34.00     0  00:16        2.00
  CSO9                 JUNCTION     0.27     2.00    42.00     0  00:22        2.00
  J1                   JUNCTION     0.07     0.22    34.22     0  00:30        0.21
  J10                  JUNCTION     0.14     0.39    29.39     0  03:32        0.38
  J11                  JUNCTION     0.15     0.30    31.30     0  00:34        0.30
  J12                  JUNCTION     0.36     0.89    26.89     0  04:45        0.89
  J13                  JUNCTION     0.07     0.22    29.22     0  00:25        0.21
  J14                  JUNCTION     0.11     0.19    20.19     0  04:47        0.19
  J15                  JUNCTION     0.17     0.35    15.35     0  00:34        0.35
  J16                  JUNCTION     0.08     0.24    30.24     0  00:30        0.24
  J17                  JUNCTION     0.05     0.11    20.11     0  03:55        0.11
  J18                  JUNCTION     0.07     0.16    29.16     0  00:35        0.16
  J19                  JUNCTION     0.14     0.17     8.17     0  04:16        0.17
  J2                   JUNCTION     0.06     0.07    25.07     0  04:29        0.07
  J3                   JUNCTION     0.10     0.15    18.15     0  04:54        0.15
  J4                   JUNCTION     0.10     0.26    33.26     0  00:33        0.26
  J5                   JUNCTION     0.06     0.13    32.13     0  00:30        0.13
  J6                   JUNCTION     0.06     0.09    25.09     0  04:13        0.09
  J7                   JUNCTION     0.09     0.23    39.23     0  00:37        0.23
  J8                   JUNCTION     0.12     0.29    36.29     0  00:30        0.29
  J9                   JUNCTION     0.09     0.16    29.16     0  04:15        0.16
  Out_to_WWTP          OUTFALL      0.14     0.17     6.17     0  04:27        0.17
  T1                   STORAGE      2.93     5.00    15.00     0  04:15        5.00
  T2                   STORAGE      1.52     2.25    23.25     0  05:55        2.25
  T3                   STORAGE      3.00     4.90    26.90     0  04:49        4.90
  T4                   STORAGE      1.07     1.49    28.49     0  05:03        1.49
  T5                   STORAGE      1.98     3.24    30.24     0  04:27        3.24
  T6                   STORAGE      3.82     4.92    35.92     0  05:55        4.92
  
  
  *******************
  Node Inflow Summary
  *******************
  
  -------------------------------------------------------------------------------------------------
                                  Maximum  Maximum                  Lateral       Total        Flow
                                  Lateral    Total  Time of Max      Inflow      Inflow     Balance
                                   Inflow   Inflow   Occurrence      Volume      Volume       Error
  Node                 Type           CMS      CMS  days hr:min    10^6 ltr    10^6 ltr     Percent
  -------------------------------------------------------------------------------------------------
  CSO10                JUNCTION     0.281    0.281     0  00:30       0.772       0.773       0.033
  CSO7                 JUNCTION     0.072    0.072     0  00:25       0.273       0.273       0.215
  CSO8                 JUNCTION     1.279    1.279     0  03:35        3.19         3.2      -0.044
  CSO9                 JUNCTION     0.217    0.217     0  00:25       0.506       0.506       0.081
  J1                   JUNCTION     0.457    0.457     0  00:30        1.08        1.08      -0.307
  J10                  JUNCTION     1.279    1.700     0  00:20        2.15        4.51      -0.232
  J11                  JUNCTION     0.000    0.486     0  00:34           0        2.37       0.357
  J12                  JUNCTION     0.000    1.676     0  03:33           0        6.18      10.194
  J13                  JUNCTION     0.680    0.680     0  00:25        1.26        1.26      -0.921
  J14                  JUNCTION     0.000    0.188     0  04:50           0        1.47       0.312
  J15                  JUNCTION     0.000    1.272     0  00:31           0        5.64       1.095
  J16                  JUNCTION     1.038    1.038     0  00:30        2.22        2.22      -0.246
  J17                  JUNCTION     0.000    0.085     0  03:55           0       0.347       0.393
  J18                  JUNCTION     0.000    0.202     0  00:35           0       0.754      -0.023
  J19                  JUNCTION     0.000    0.271     0  04:16           0        4.31       0.274
  J2                   JUNCTION     0.000    0.032     0  04:27           0       0.517       0.921
  J3                   JUNCTION     0.000    0.235     0  04:48           0        2.34       1.133
  J4                   JUNCTION     0.000    0.072     0  00:25           0       0.273       0.905
  J5                   JUNCTION     0.103    0.149     0  00:29       0.361       0.631      -0.135
  J6                   JUNCTION     0.000    0.041     0  04:12           0       0.369       0.760
  J7                   JUNCTION     0.000    0.127     0  00:37           0       0.459       0.537
  J8                   JUNCTION     0.675    0.794     0  00:30        2.31        2.77      -0.133
  J9                   JUNCTION     0.000    0.172     0  04:13           0        1.34       0.818
  Out_to_WWTP          OUTFALL      0.000    0.271     0  04:17           0         4.3       0.000
  T1                   STORAGE      0.000    1.059     0  00:34           0        5.58      13.769
  T2                   STORAGE      0.000    0.662     0  00:25           0        1.27      59.266
  T3                   STORAGE      0.000    1.618     0  00:23           0        5.61      31.737
  T4                   STORAGE      0.000    0.148     0  00:30           0       0.632      23.242
  T5                   STORAGE      0.000    0.441     0  00:30           0        1.09      35.877
  T6                   STORAGE      0.000    0.787     0  00:30           0        2.77      43.704
  
  
  **********************
  Node Surcharge Summary
  **********************
  
  Surcharging occurs when water rises above the top of the highest conduit.
  ---------------------------------------------------------------------
                                               Max. Height   Min. Depth
                                   Hours       Above Crown    Below Rim
  Node                 Type      Surcharged         Meters       Meters
  ---------------------------------------------------------------------
  CSO10                JUNCTION        0.35          0.560        0.000
  CSO7                 JUNCTION        0.13          0.832        0.112
  CSO8                 JUNCTION        0.88          1.547        0.000
  CSO9                 JUNCTION        0.41          1.682        0.000
  
  
  *********************
  Node Flooding Summary
  *********************
  
  Flooding refers to all water that overflows a node, whether it ponds or not.
  --------------------------------------------------------------------------
                                                             Total   Maximum
                                 Maximum   Time of Max       Flood    Ponded
                        Hours       Rate    Occurrence      Volume     Depth
  Node                 Flooded       CMS   days hr:min    10^6 ltr    Meters
  --------------------------------------------------------------------------
  CSO10                   0.18     0.079      0  00:30       0.019     0.000
  CSO8                    0.64     0.790      0  03:35       0.830     0.000
  CSO9                    0.26     0.094      0  00:25       0.047     0.000
  T1                      0.09     0.047      0  04:15       0.008     0.000
  
  
  **********************
  Storage Volume Summary
  **********************
  
  --------------------------------------------------------------------------------------------------
                         Average     Avg  Evap Exfil       Maximum     Max    Time of Max    Maximum
                          Volume    Pcnt  Pcnt  Pcnt        Volume    Pcnt     Occurrence    Outflow
  Storage Unit           1000 m3    Full  Loss  Loss       1000 m3    Full    days hr:min        CMS
  --------------------------------------------------------------------------------------------------
  T1                       0.410      59     0     0         0.700     100       0  04:15      0.271
  T2                       0.304      30     0     0         0.449      45       0  05:55      0.085
  T3                       1.562      60     0     0         2.548      98       0  04:49      0.378
  T4                       0.107      21     0     0         0.149      30       0  05:03      0.041
  T5                       0.198      40     0     0         0.324      65       0  04:27      0.032
  T6                       0.459      76     0     0         0.590      98       0  05:55      0.172
  
  
  ***********************
  Outfall Loading Summary
  ***********************
  
  -----------------------------------------------------------
                         Flow       Avg       Max       Total
                         Freq      Flow      Flow      Volume
  Outfall Node           Pcnt       CMS       CMS    10^6 ltr
  -----------------------------------------------------------
  Out_to_WWTP           98.11     0.193     0.271       4.300
  -----------------------------------------------------------
  System                98.11     0.193     0.271       4.300
  
  
  ********************
  Link Flow Summary
  ********************
  
  -----------------------------------------------------------------------------
                                 Maximum  Time of Max   Maximum    Max/    Max/
                                  |Flow|   Occurrence   |Veloc|    Full    Full
  Link                 Type          CMS  days hr:min     m/sec    Flow   Depth
  -----------------------------------------------------------------------------
  C1                   CONDUIT     0.032     0  04:30      0.94    0.01    0.11
  C10                  CONDUIT     0.787     0  00:30      2.80    0.08    0.59
  C11                  CONDUIT     0.233     0  04:54      1.91    0.01    0.12
  C12                  CONDUIT     0.172     0  04:15      1.24    0.01    0.26
  C13                  CONDUIT     1.618     0  00:23      3.95    0.09    0.72
  C14                  CONDUIT     0.271     0  04:17      2.08    0.02    0.09
  C15                  CONDUIT     0.486     0  00:34      3.91    1.55    0.83
  C16                  CONDUIT     0.486     0  03:42      1.82    0.05    0.17
  C17                  CONDUIT     1.655     0  00:21      4.25    0.08    0.24
  C18                  CONDUIT     0.662     0  00:25      3.10    0.02    0.52
  C19                  CONDUIT     0.081     0  03:55      1.24    0.03    0.22
  C2                   CONDUIT     0.041     0  04:13      1.31    0.05    0.17
  C20                  CONDUIT     1.000     0  00:30      4.26    0.03    0.14
  C21                  CONDUIT     0.202     0  00:35      1.88    1.16    0.69
  C22                  CONDUIT     0.202     0  00:35      1.69    0.09    0.32
  C23                  CONDUIT     1.059     0  00:34      2.98    0.12    0.62
  C3                   CONDUIT     0.189     0  04:48      2.20    0.07    0.17
  C4                   CONDUIT     0.441     0  00:30      6.63    0.11    0.60
  C5                   CONDUIT     0.072     0  00:25      1.60    1.23    1.00
  C6                   CONDUIT     0.059     0  00:34      1.27    0.94    0.65
  C7                   CONDUIT     0.148     0  00:30      2.35    0.04    0.55
  C8                   CONDUIT     0.127     0  00:37      2.01    1.60    0.86
  C9                   CONDUIT     0.127     0  00:37      1.32    0.43    0.51
  V1                   ORIFICE     0.271     0  04:16                      1.00
  V2                   ORIFICE     0.085     0  03:55                      1.00
  V3                   ORIFICE     0.188     0  04:50                      1.00
  V4                   ORIFICE     0.041     0  04:12                      1.00
  V5                   ORIFICE     0.032     0  04:27                      1.00
  V6                   ORIFICE     0.172     0  04:13                      1.00
  
  
  ***************************
  Flow Classification Summary
  ***************************
  
  -------------------------------------------------------------------------------------
                      Adjusted    ---------- Fraction of Time in Flow Class ---------- 
                       /Actual         Up    Down  Sub   Sup   Up    Down  Norm  Inlet 
  Conduit               Length    Dry  Dry   Dry   Crit  Crit  Crit  Crit  Ltd   Ctrl  
  -------------------------------------------------------------------------------------
  C1                      1.00   0.00  0.00  0.00  0.43  0.56  0.00  0.00  0.94  0.00
  C10                     1.00   0.00  0.00  0.00  0.90  0.10  0.00  0.00  0.93  0.00
  C11                     1.00   0.00  0.00  0.00  0.36  0.64  0.00  0.00  0.99  0.00
  C12                     1.00   0.00  0.00  0.00  0.78  0.21  0.00  0.00  1.00  0.00
  C13                     1.00   0.00  0.00  0.00  0.91  0.09  0.00  0.00  0.58  0.00
  C14                     1.00   0.01  0.00  0.00  0.02  0.97  0.00  0.00  0.60  0.00
  C15                     1.00   0.01  0.00  0.00  0.00  0.98  0.00  0.00  0.00  0.00
  C16                     1.00   0.00  0.02  0.00  0.18  0.80  0.00  0.00  0.10  0.00
  C17                     1.00   0.00  0.00  0.00  0.36  0.64  0.00  0.00  0.93  0.00
  C18                     1.00   0.00  0.00  0.00  0.90  0.10  0.00  0.00  0.94  0.00
  C19                     1.00   0.00  0.00  0.00  0.96  0.04  0.00  0.00  1.00  0.00
  C2                      1.00   0.00  0.00  0.00  0.39  0.60  0.00  0.00  0.99  0.00
  C20                     1.00   0.00  0.00  0.00  0.53  0.47  0.00  0.00  0.95  0.00
  C21                     1.00   0.00  0.00  0.00  0.02  0.98  0.00  0.00  0.00  0.00
  C22                     1.00   0.00  0.00  0.00  0.80  0.20  0.00  0.00  1.00  0.00
  C23                     1.00   0.00  0.00  0.00  0.87  0.13  0.00  0.00  0.91  0.00
  C3                      1.00   0.00  0.01  0.00  0.04  0.95  0.00  0.00  0.59  0.00
  C4                      1.00   0.00  0.00  0.00  0.88  0.12  0.00  0.00  0.93  0.00
  C5                      1.00   0.00  0.00  0.00  0.80  0.20  0.00  0.00  0.88  0.00
  C6                      1.00   0.00  0.00  0.00  0.11  0.89  0.00  0.00  0.01  0.00
  C7                      1.00   0.00  0.00  0.00  0.89  0.11  0.00  0.00  0.93  0.00
  C8                      1.00   0.00  0.00  0.00  0.15  0.85  0.00  0.00  0.00  0.00
  C9                      1.00   0.00  0.00  0.00  1.00  0.00  0.00  0.00  1.00  0.00
  
  
  *************************
  Conduit Surcharge Summary
  *************************
  
  ----------------------------------------------------------------------------
                                                           Hours        Hours 
                         --------- Hours Full --------   Above Full   Capacity
  Conduit                Both Ends  Upstream  Dnstream   Normal Flow   Limited
  ----------------------------------------------------------------------------
  C10                         0.01      0.01      5.34      0.01         0.01
  C13                         0.01      0.01      5.04      0.01         0.01
  C15                         0.01      0.88      0.01      0.91         0.01
  C18                         0.01      0.01      1.85      0.01         0.01
  C21                         0.01      0.35      0.01      0.31         0.01
  C23                         0.01      0.01      5.27      0.01         0.01
  C4                          0.01      0.01      5.31      0.01         0.01
  C5                          0.04      0.13      0.08      0.15         0.03
  C7                          0.01      0.01      4.87      0.01         0.01
  C8                          0.01      0.41      0.01      0.42         0.01
  

  Analysis begun on:  Sun Jul 17 21:43:45 2022
  Analysis ended on:  Sun Jul 17 21:43:45 2022
  Total elapsed time: < 1 sec