
  EPA STORM WATER MANAGEMENT MODEL - VERSION 5.1 (Build 5.3.0.dev0)
  --------------------------------------------------------------

  
  *********************************************************
  NOTE: The summary statistics displayed in this report are
  based on results found at every computational time step,  
  not just on results from each reporting time step.
  *********************************************************
  
  ****************
  Analysis Options
  ****************
  Flow Units ............... CMS
  Process Models:
    Rainfall/Runoff ........ YES
    RDII ................... NO
    Snowmelt ............... NO
    Groundwater ............ NO
    Flow Routing ........... YES
    Ponding Allowed ........ NO
    Water Quality .......... NO
  Infiltration Method ...... HORTON
  Flow Routing Method ...... DYNWAVE
  Surcharge Method ......... EXTRAN
  Starting Date ............ 07/23/2007 19:10:00
  Ending Date .............. 07/24/2007 09:15:00
  Antecedent Dry Days ...... 0.0
  Report Time Step ......... 00:05:00
  Wet Time Step ............ 00:05:00
  Dry Time Step ............ 01:00:00
  Routing Time Step ........ 30.00 sec
  Variable Time Step ....... YES
  Maximum Trials ........... 8
  Number of Threads ........ 1
  Head Tolerance ........... 0.001500 m
  
  
  **************************        Volume         Depth
  Runoff Quantity Continuity     hectare-m            mm
  **************************     ---------       -------
  Total Precipitation ......         1.806        10.020
  Evaporation Loss .........         0.000         0.000
  Infiltration Loss ........         0.000         0.000
  Surface Runoff ...........         1.778         9.869
  Final Storage ............         0.028         0.157
  Continuity Error (%) .....        -0.057
  
  
  **************************        Volume        Volume
  Flow Routing Continuity        hectare-m      10^6 ltr
  **************************     ---------     ---------
  Dry Weather Inflow .......         0.299         2.995
  Wet Weather Inflow .......         1.778        17.781
  Groundwater Inflow .......         0.000         0.000
  RDII Inflow ..............         0.000         0.000
  External Inflow ..........         0.000         0.000
  External Outflow .........         1.100        11.002
  Flooding Loss ............         0.145         1.455
  Evaporation Loss .........         0.000         0.000
  Exfiltration Loss ........         0.000         0.000
  Initial Stored Volume ....         0.000         0.000
  Final Stored Volume ......         0.644         6.436
  Continuity Error (%) .....         9.062
  
  
  *************************
  Highest Continuity Errors
  *************************
  Node T2 (26.76%)
  Node T3 (15.07%)
  Node T4 (14.36%)
  Node T5 (13.65%)
  Node T6 (12.30%)
  
  
  ***************************
  Time-Step Critical Elements
  ***************************
  Link C15 (37.21%)
  
  
  ********************************
  Highest Flow Instability Indexes
  ********************************
  Link C13 (8)
  Link C20 (3)
  Link C15 (3)
  Link C4 (2)
  Link C18 (2)
  
  
  *************************
  Routing Time Step Summary
  *************************
  Minimum Time Step           :     0.02 sec
  Average Time Step           :    26.95 sec
  Maximum Time Step           :    30.00 sec
  Percent in Steady State     :     4.26
  Average Iterations per Step :     2.01
  Percent Not Converging      :     0.00
  
  
  ***************************
  Subcatchment Runoff Summary
  ***************************
  
  ------------------------------------------------------------------------------------------------------------------------------
                            Total      Total      Total      Total     Imperv       Perv      Total       Total     Peak  Runoff
                           Precip      Runon       Evap      Infil     Runoff     Runoff     Runoff      Runoff   Runoff   Coeff
  Subcatchment                 mm         mm         mm         mm         mm         mm         mm    10^6 ltr      CMS
  ------------------------------------------------------------------------------------------------------------------------------
  SC01                      10.12       0.00       0.00       0.00      10.01       0.00      10.01        3.30     0.24   0.989
  SC010                     10.12       0.00       0.00       0.00       9.97       0.00       9.97        1.17     0.08   0.985
  SC02                       9.93       0.00       0.00       0.00       9.81       0.00       9.81        2.23     0.19   0.988
  SC03                       9.94       0.00       0.00       0.00       9.87       0.00       9.87        1.78     0.11   0.993
  SC04                       9.93       0.00       0.00       0.00       9.71       0.00       9.71        0.67     0.05   0.978
  SC05                      10.12       0.00       0.00       0.00      10.00       0.00      10.00        1.56     0.11   0.988
  SC06                      10.04       0.00       0.00       0.00       9.78       0.00       9.78        3.18     0.21   0.974
  SC07                       9.93       0.00       0.00       0.00       9.71       0.00       9.71        0.46     0.04   0.978
  SC08                       9.94       0.00       0.00       0.00       9.81       0.00       9.81        2.75     0.17   0.987
  SC09                      10.04       0.00       0.00       0.00       9.88       0.00       9.88        0.68     0.05   0.984
  
  
  ******************
  Node Depth Summary
  ******************
  
  ---------------------------------------------------------------------------------
                                 Average  Maximum  Maximum  Time of Max    Reported
                                   Depth    Depth      HGL   Occurrence   Max Depth
  Node                 Type       Meters   Meters   Meters  days hr:min      Meters
  ---------------------------------------------------------------------------------
  CSO10                JUNCTION     0.12     0.23    30.23     0  04:40        0.23
  CSO7                 JUNCTION     0.08     0.15    34.15     0  03:45        0.15
  CSO8                 JUNCTION     0.13     0.24    32.24     0  05:20        0.24
  CSO9                 JUNCTION     0.10     0.19    40.19     0  03:45        0.19
  J1                   JUNCTION     0.07     0.11    34.11     0  04:40        0.11
  J10                  JUNCTION     0.10     0.16    29.16     0  05:25        0.16
  J11                  JUNCTION     0.10     0.18    31.18     0  05:25        0.18
  J12                  JUNCTION     0.19     0.28    26.28     0  09:24        0.28
  J13                  JUNCTION     0.06     0.12    29.12     0  03:45        0.12
  J14                  JUNCTION     0.12     0.15    20.15     0  11:50        0.15
  J15                  JUNCTION     0.17     0.24    15.24     0  04:43        0.24
  J16                  JUNCTION     0.07     0.12    30.12     0  04:40        0.12
  J17                  JUNCTION     0.06     0.07    20.07     0  07:30        0.07
  J18                  JUNCTION     0.06     0.11    29.11     0  04:42        0.10
  J19                  JUNCTION     0.15     0.17     8.17     0  04:31        0.17
  J2                   JUNCTION     0.06     0.08    25.08     0  06:25        0.08
  J3                   JUNCTION     0.11     0.13    18.13     0  07:29        0.13
  J4                   JUNCTION     0.10     0.18    33.18     0  03:47        0.18
  J5                   JUNCTION     0.06     0.10    32.10     0  03:46        0.10
  J6                   JUNCTION     0.06     0.07    25.07     0  06:55        0.07
  J7                   JUNCTION     0.08     0.14    39.14     0  03:48        0.14
  J8                   JUNCTION     0.10     0.17    36.17     0  03:48        0.17
  J9                   JUNCTION     0.10     0.11    29.11     0  06:05        0.11
  Out_to_WWTP          OUTFALL      0.15     0.17     6.17     0  08:42        0.17
  T1                   STORAGE      3.65     5.00    15.00     0  04:30        5.00
  T2                   STORAGE      2.85     4.24    25.24     0  07:28        4.24
  T3                   STORAGE      3.01     4.28    26.28     0  09:29        4.28
  T4                   STORAGE      2.59     4.11    31.11     0  06:51        4.11
  T5                   STORAGE      2.86     4.30    31.30     0  06:23        4.30
  T6                   STORAGE      3.65     5.00    36.00     0  04:14        5.00
  
  
  *******************
  Node Inflow Summary
  *******************
  
  -------------------------------------------------------------------------------------------------
                                  Maximum  Maximum                  Lateral       Total        Flow
                                  Lateral    Total  Time of Max      Inflow      Inflow     Balance
                                   Inflow   Inflow   Occurrence      Volume      Volume       Error
  Node                 Type           CMS      CMS  days hr:min    10^6 ltr    10^6 ltr     Percent
  -------------------------------------------------------------------------------------------------
  CSO10                JUNCTION     0.084    0.084     0  04:40        1.28        1.28       0.019
  CSO7                 JUNCTION     0.038    0.038     0  03:45       0.689        0.69       0.065
  CSO8                 JUNCTION     0.167    0.167     0  05:25        2.87        2.87       0.003
  CSO9                 JUNCTION     0.049    0.049     0  03:45       0.835       0.835       0.053
  J1                   JUNCTION     0.116    0.116     0  04:40           2           2       0.024
  J10                  JUNCTION     0.116    0.280     0  05:24        2.08        4.94       0.057
  J11                  JUNCTION     0.000    0.167     0  05:25           0        2.87       0.150
  J12                  JUNCTION     0.000    0.355     0  05:25           0        8.04       1.410
  J13                  JUNCTION     0.192    0.192     0  03:45         2.6         2.6      -0.110
  J14                  JUNCTION     0.000    0.114     0  09:29           0        4.57       0.153
  J15                  JUNCTION     0.000    0.500     0  04:41           0        13.1       0.575
  J16                  JUNCTION     0.246    0.246     0  04:40        3.74        3.73      -0.005
  J17                  JUNCTION     0.000    0.031     0  07:29           0         1.2       0.478
  J18                  JUNCTION     0.000    0.084     0  04:40           0        1.28       0.016
  J19                  JUNCTION     0.000    0.271     0  04:31           0          11       0.105
  J2                   JUNCTION     0.000    0.036     0  06:23           0        1.43       0.313
  J3                   JUNCTION     0.000    0.175     0  07:28           0        6.95       0.500
  J4                   JUNCTION     0.000    0.038     0  03:45           0        0.69       0.339
  J5                   JUNCTION     0.053    0.090     0  03:45        0.77        1.46       0.018
  J6                   JUNCTION     0.000    0.025     0  06:51           0       0.965       0.350
  J7                   JUNCTION     0.000    0.049     0  03:46           0       0.835       0.374
  J8                   JUNCTION     0.216    0.264     0  03:45        3.92        4.75       0.091
  J9                   JUNCTION     0.000    0.075     0  04:15           0        3.11       0.491
  Out_to_WWTP          OUTFALL      0.000    0.271     0  04:32           0          11       0.000
  T1                   STORAGE      0.000    0.490     0  04:44           0          13       5.317
  T2                   STORAGE      0.000    0.191     0  03:45           0        2.61      36.535
  T3                   STORAGE      0.000    0.352     0  05:27           0        7.92      17.750
  T4                   STORAGE      0.000    0.089     0  03:46           0        1.46      16.771
  T5                   STORAGE      0.000    0.115     0  04:41           0           2      15.804
  T6                   STORAGE      0.000    0.263     0  03:48           0        4.75      14.022
  
  
  **********************
  Node Surcharge Summary
  **********************
  
  No nodes were surcharged.
  
  
  *********************
  Node Flooding Summary
  *********************
  
  Flooding refers to all water that overflows a node, whether it ponds or not.
  --------------------------------------------------------------------------
                                                             Total   Maximum
                                 Maximum   Time of Max       Flood    Ponded
                        Hours       Rate    Occurrence      Volume     Depth
  Node                 Flooded       CMS   days hr:min    10^6 ltr    Meters
  --------------------------------------------------------------------------
  T1                      3.89     0.220      0  04:44       0.825     0.000
  T6                      2.01     0.142      0  05:01       0.630     0.000
  
  
  **********************
  Storage Volume Summary
  **********************
  
  --------------------------------------------------------------------------------------------------
                         Average     Avg  Evap Exfil       Maximum     Max    Time of Max    Maximum
                          Volume    Pcnt  Pcnt  Pcnt        Volume    Pcnt     Occurrence    Outflow
  Storage Unit           1000 m3    Full  Loss  Loss       1000 m3    Full    days hr:min        CMS
  --------------------------------------------------------------------------------------------------
  T1                       0.511      73     0     0         0.700     100       0  04:30      0.271
  T2                       0.570      57     0     0         0.847      85       0  07:28      0.031
  T3                       1.565      60     0     0         2.224      86       0  09:29      0.114
  T4                       0.259      52     0     0         0.411      82       0  06:51      0.025
  T5                       0.286      57     0     0         0.430      86       0  06:23      0.036
  T6                       0.438      73     0     0         0.600     100       0  04:14      0.075
  
  
  ***********************
  Outfall Loading Summary
  ***********************
  
  -----------------------------------------------------------
                         Flow       Avg       Max       Total
                         Freq      Flow      Flow      Volume
  Outfall Node           Pcnt       CMS       CMS    10^6 ltr
  -----------------------------------------------------------
  Out_to_WWTP           99.41     0.218     0.271      11.002
  -----------------------------------------------------------
  System                99.41     0.218     0.271      11.002
  
  
  ********************
  Link Flow Summary
  ********************
  
  -----------------------------------------------------------------------------
                                 Maximum  Time of Max   Maximum    Max/    Max/
                                  |Flow|   Occurrence   |Veloc|    Full    Full
  Link                 Type          CMS  days hr:min     m/sec    Flow   Depth
  -----------------------------------------------------------------------------
  C1                   CONDUIT     0.036     0  06:25      0.91    0.01    0.10
  C10                  CONDUIT     0.263     0  03:48      1.62    0.03    0.56
  C11                  CONDUIT     0.175     0  07:30      1.65    0.01    0.09
  C12                  CONDUIT     0.075     0  05:24      0.91    0.01    0.10
  C13                  CONDUIT     0.352     0  05:27      1.31    0.02    0.57
  C14                  CONDUIT     0.271     0  04:32      2.08    0.02    0.09
  C15                  CONDUIT     0.167     0  05:25      2.28    0.53    0.47
  C16                  CONDUIT     0.167     0  05:26      1.28    0.02    0.09
  C17                  CONDUIT     0.280     0  05:25      2.00    0.01    0.09
  C18                  CONDUIT     0.191     0  03:45      3.92    0.01    0.53
  C19                  CONDUIT     0.031     0  07:30      0.57    0.01    0.15
  C2                   CONDUIT     0.025     0  06:55      0.81    0.03    0.17
  C20                  CONDUIT     0.244     0  04:41      3.28    0.01    0.09
  C21                  CONDUIT     0.084     0  04:40      1.54    0.48    0.39
  C22                  CONDUIT     0.083     0  04:42      1.05    0.04    0.21
  C23                  CONDUIT     0.490     0  04:44      1.22    0.05    0.58
  C3                   CONDUIT     0.114     0  09:30      1.76    0.04    0.14
  C4                   CONDUIT     0.115     0  04:41      3.48    0.03    0.56
  C5                   CONDUIT     0.038     0  03:45      1.20    0.65    0.64
  C6                   CONDUIT     0.037     0  03:48      1.15    0.59    0.47
  C7                   CONDUIT     0.089     0  03:46      1.41    0.02    0.55
  C8                   CONDUIT     0.049     0  03:46      1.20    0.61    0.51
  C9                   CONDUIT     0.048     0  03:48      0.94    0.16    0.31
  V1                   ORIFICE     0.271     0  04:31                      1.00
  V2                   ORIFICE     0.031     0  07:29                      0.24
  V3                   ORIFICE     0.114     0  09:29                      0.65
  V4                   ORIFICE     0.025     0  06:51                      0.35
  V5                   ORIFICE     0.036     0  06:23                      1.00
  V6                   ORIFICE     0.075     0  04:15                      0.43
  
  
  ***************************
  Flow Classification Summary
  ***************************
  
  -------------------------------------------------------------------------------------
                      Adjusted    ---------- Fraction of Time in Flow Class ---------- 
                       /Actual         Up    Down  Sub   Sup   Up    Down  Norm  Inlet 
  Conduit               Length    Dry  Dry   Dry   Crit  Crit  Crit  Crit  Ltd   Ctrl  
  -------------------------------------------------------------------------------------
  C1                      1.00   0.00  0.00  0.00  0.35  0.64  0.00  0.00  0.97  0.00
  C10                     1.00   0.00  0.00  0.00  0.98  0.02  0.00  0.00  0.99  0.00
  C11                     1.00   0.00  0.00  0.00  0.29  0.70  0.00  0.00  1.00  0.00
  C12                     1.00   0.00  0.00  0.00  1.00  0.00  0.00  0.00  1.00  0.00
  C13                     1.00   0.00  0.00  0.00  0.92  0.08  0.00  0.00  0.36  0.00
  C14                     1.00   0.00  0.00  0.00  0.00  0.99  0.00  0.00  0.29  0.00
  C15                     1.00   0.02  0.00  0.00  0.00  0.98  0.00  0.00  0.00  0.00
  C16                     1.00   0.00  0.02  0.00  0.28  0.70  0.00  0.00  0.20  0.00
  C17                     1.00   0.00  0.00  0.00  0.50  0.50  0.00  0.00  0.99  0.00
  C18                     1.00   0.00  0.00  0.00  0.97  0.03  0.00  0.00  0.98  0.00
  C19                     1.00   0.00  0.00  0.00  1.00  0.00  0.00  0.00  1.00  0.00
  C2                      1.00   0.00  0.00  0.00  0.94  0.06  0.00  0.00  0.99  0.00
  C20                     1.00   0.00  0.00  0.00  0.53  0.47  0.00  0.00  0.99  0.00
  C21                     1.00   0.00  0.00  0.00  0.00  1.00  0.00  0.00  0.00  0.00
  C22                     1.00   0.00  0.00  0.00  0.99  0.01  0.00  0.00  1.00  0.00
  C23                     1.00   0.00  0.00  0.00  0.94  0.06  0.00  0.00  0.97  0.00
  C3                      1.00   0.00  0.00  0.00  0.03  0.96  0.00  0.00  0.07  0.00
  C4                      1.00   0.00  0.00  0.00  0.98  0.02  0.00  0.00  0.99  0.00
  C5                      1.00   0.00  0.00  0.00  0.87  0.13  0.00  0.00  0.99  0.00
  C6                      1.00   0.00  0.00  0.00  0.01  0.99  0.00  0.00  0.00  0.00
  C7                      1.00   0.00  0.00  0.00  0.97  0.03  0.00  0.00  0.98  0.00
  C8                      1.00   0.00  0.00  0.00  0.00  1.00  0.00  0.00  0.00  0.00
  C9                      1.00   0.00  0.00  0.00  1.00  0.00  0.00  0.00  1.00  0.00
  
  
  *************************
  Conduit Surcharge Summary
  *************************
  
  ----------------------------------------------------------------------------
                                                           Hours        Hours 
                         --------- Hours Full --------   Above Full   Capacity
  Conduit                Both Ends  Upstream  Dnstream   Normal Flow   Limited
  ----------------------------------------------------------------------------
  C10                         0.01      0.01     11.63      0.01         0.01
  C13                         0.01      0.01     10.40      0.01         0.01
  C18                         0.01      0.01     10.36      0.01         0.01
  C23                         0.01      0.01     11.41      0.01         0.01
  C4                          0.01      0.01     11.58      0.01         0.01
  C7                          0.01      0.01     11.00      0.01         0.01
  

  Analysis begun on:  Sun Jul 17 20:02:02 2022
  Analysis ended on:  Sun Jul 17 20:02:02 2022
  Total elapsed time: < 1 sec