
  EPA STORM WATER MANAGEMENT MODEL - VERSION 5.1 (Build 5.3.0.dev0)
  --------------------------------------------------------------

  
  *********************************************************
  NOTE: The summary statistics displayed in this report are
  based on results found at every computational time step,  
  not just on results from each reporting time step.
  *********************************************************
  
  ****************
  Analysis Options
  ****************
  Flow Units ............... CMS
  Process Models:
    Rainfall/Runoff ........ YES
    RDII ................... NO
    Snowmelt ............... NO
    Groundwater ............ NO
    Flow Routing ........... YES
    Ponding Allowed ........ NO
    Water Quality .......... NO
  Infiltration Method ...... HORTON
  Flow Routing Method ...... DYNWAVE
  Surcharge Method ......... EXTRAN
  Starting Date ............ 12/17/2009 08:50:00
  Ending Date .............. 12/18/2009 06:30:00
  Antecedent Dry Days ...... 0.0
  Report Time Step ......... 00:05:00
  Wet Time Step ............ 00:05:00
  Dry Time Step ............ 01:00:00
  Routing Time Step ........ 30.00 sec
  Variable Time Step ....... YES
  Maximum Trials ........... 8
  Number of Threads ........ 1
  Head Tolerance ........... 0.001500 m
  
  
  **************************        Volume         Depth
  Runoff Quantity Continuity     hectare-m            mm
  **************************     ---------       -------
  Total Precipitation ......         1.670         9.269
  Evaporation Loss .........         0.000         0.000
  Infiltration Loss ........         0.000         0.000
  Surface Runoff ...........         1.647         9.142
  Final Storage ............         0.024         0.134
  Continuity Error (%) .....        -0.066
  
  
  **************************        Volume        Volume
  Flow Routing Continuity        hectare-m      10^6 ltr
  **************************     ---------     ---------
  Dry Weather Inflow .......         0.664         6.635
  Wet Weather Inflow .......         1.647        16.471
  Groundwater Inflow .......         0.000         0.000
  RDII Inflow ..............         0.000         0.000
  External Inflow ..........         0.000         0.000
  External Outflow .........         1.575        15.753
  Flooding Loss ............         0.000         0.000
  Evaporation Loss .........         0.000         0.000
  Exfiltration Loss ........         0.000         0.000
  Initial Stored Volume ....         0.000         0.000
  Final Stored Volume ......         0.607         6.072
  Continuity Error (%) .....         5.543
  
  
  *************************
  Highest Continuity Errors
  *************************
  Node T2 (18.69%)
  Node T3 (13.45%)
  Node T6 (11.60%)
  Node T4 (6.51%)
  Node T5 (5.38%)
  
  
  ***************************
  Time-Step Critical Elements
  ***************************
  Link C15 (30.80%)
  
  
  ********************************
  Highest Flow Instability Indexes
  ********************************
  Link C13 (9)
  Link C3 (4)
  Link C23 (4)
  Link C11 (3)
  Link C15 (3)
  
  
  *************************
  Routing Time Step Summary
  *************************
  Minimum Time Step           :     0.14 sec
  Average Time Step           :    28.12 sec
  Maximum Time Step           :    30.00 sec
  Percent in Steady State     :     6.31
  Average Iterations per Step :     2.03
  Percent Not Converging      :     0.00
  
  
  ***************************
  Subcatchment Runoff Summary
  ***************************
  
  ------------------------------------------------------------------------------------------------------------------------------
                            Total      Total      Total      Total     Imperv       Perv      Total       Total     Peak  Runoff
                           Precip      Runon       Evap      Infil     Runoff     Runoff     Runoff      Runoff   Runoff   Coeff
  Subcatchment                 mm         mm         mm         mm         mm         mm         mm    10^6 ltr      CMS
  ------------------------------------------------------------------------------------------------------------------------------
  SC01                       8.85       0.00       0.00       0.00       8.76       0.00       8.76        2.89     0.15   0.990
  SC010                      8.85       0.00       0.00       0.00       8.73       0.00       8.73        1.03     0.05   0.986
  SC02                       8.75       0.00       0.00       0.00       8.64       0.00       8.64        1.96     0.10   0.987
  SC03                       9.65       0.00       0.00       0.00       9.59       0.00       9.59        1.73     0.11   0.994
  SC04                       8.75       0.00       0.00       0.00       8.53       0.00       8.53        0.59     0.03   0.975
  SC05                       8.85       0.00       0.00       0.00       8.75       0.00       8.75        1.37     0.07   0.989
  SC06                       9.92       0.00       0.00       0.00       9.71       0.00       9.71        3.16     0.14   0.978
  SC07                       8.75       0.00       0.00       0.00       8.53       0.00       8.53        0.41     0.02   0.975
  SC08                       9.65       0.00       0.00       0.00       9.55       0.00       9.55        2.67     0.15   0.989
  SC09                       9.92       0.00       0.00       0.00       9.78       0.00       9.78        0.67     0.03   0.986
  
  
  ******************
  Node Depth Summary
  ******************
  
  ---------------------------------------------------------------------------------
                                 Average  Maximum  Maximum  Time of Max    Reported
                                   Depth    Depth      HGL   Occurrence   Max Depth
  Node                 Type       Meters   Meters   Meters  days hr:min      Meters
  ---------------------------------------------------------------------------------
  CSO10                JUNCTION     0.10     0.19    30.19     0  02:05        0.19
  CSO7                 JUNCTION     0.08     0.13    34.13     0  02:35        0.13
  CSO8                 JUNCTION     0.10     0.24    32.24     0  01:35        0.24
  CSO9                 JUNCTION     0.09     0.17    40.17     0  02:50        0.17
  J1                   JUNCTION     0.06     0.10    34.10     0  01:41        0.10
  J10                  JUNCTION     0.08     0.16    29.16     0  01:37        0.16
  J11                  JUNCTION     0.08     0.17    31.17     0  01:37        0.17
  J12                  JUNCTION     0.31     0.70    26.70     0  15:52        0.70
  J13                  JUNCTION     0.05     0.09    29.09     0  01:55        0.09
  J14                  JUNCTION     0.11     0.19    20.19     0  18:37        0.19
  J15                  JUNCTION     0.16     0.23    15.23     0  02:50        0.23
  J16                  JUNCTION     0.06     0.10    30.10     0  01:41        0.10
  J17                  JUNCTION     0.06     0.13    20.13     0  17:31        0.13
  J18                  JUNCTION     0.05     0.09    29.09     0  01:55        0.09
  J19                  JUNCTION     0.15     0.17     8.17     0  15:22        0.17
  J2                   JUNCTION     0.06     0.07    25.07     0  05:13        0.07
  J3                   JUNCTION     0.11     0.16    18.16     0  14:55        0.16
  J4                   JUNCTION     0.09     0.15    33.15     0  02:38        0.15
  J5                   JUNCTION     0.05     0.08    32.08     0  02:37        0.08
  J6                   JUNCTION     0.06     0.10    25.10     0  14:36        0.10
  J7                   JUNCTION     0.07     0.12    39.12     0  02:52        0.12
  J8                   JUNCTION     0.09     0.15    36.15     0  02:52        0.15
  J9                   JUNCTION     0.09     0.16    29.16     0  11:10        0.16
  Out_to_WWTP          OUTFALL      0.15     0.17     6.17     0  15:22        0.17
  T1                   STORAGE      3.00     4.72    14.72     0  15:21        4.72
  T2                   STORAGE      2.21     3.08    24.08     0  15:49        3.08
  T3                   STORAGE      3.62     4.71    26.71     0  15:57        4.70
  T4                   STORAGE      1.91     2.54    29.54     0  05:54        2.54
  T5                   STORAGE      2.40     3.44    30.44     0  05:11        3.44
  T6                   STORAGE      3.68     4.84    35.84     0  10:30        4.84
  
  
  *******************
  Node Inflow Summary
  *******************
  
  -------------------------------------------------------------------------------------------------
                                  Maximum  Maximum                  Lateral       Total        Flow
                                  Lateral    Total  Time of Max      Inflow      Inflow     Balance
                                   Inflow   Inflow   Occurrence      Volume      Volume       Error
  Node                 Type           CMS      CMS  days hr:min    10^6 ltr    10^6 ltr     Percent
  -------------------------------------------------------------------------------------------------
  CSO10                JUNCTION     0.056    0.056     0  02:05        1.26        1.27      -0.005
  CSO7                 JUNCTION     0.029    0.029     0  02:35       0.903       0.903       0.048
  CSO8                 JUNCTION     0.158    0.158     0  01:35        3.03        3.04      -0.009
  CSO9                 JUNCTION     0.040    0.040     0  02:50        1.01        1.01       0.042
  J1                   JUNCTION     0.090    0.090     0  01:40        2.33        2.33      -0.042
  J10                  JUNCTION     0.127    0.272     0  01:35        2.39        5.42      -0.056
  J11                  JUNCTION     0.000    0.158     0  01:35           0        3.04       0.033
  J12                  JUNCTION     0.000    0.387     0  04:36           0        10.3       4.304
  J13                  JUNCTION     0.114    0.114     0  01:55        2.77        2.76      -0.108
  J14                  JUNCTION     0.000    0.184     0  15:06           0        5.94      -0.168
  J15                  JUNCTION     0.000    0.451     0  02:47           0        16.3       0.165
  J16                  JUNCTION     0.168    0.168     0  01:40        3.84        3.85      -0.062
  J17                  JUNCTION     0.000    0.108     0  17:25           0         1.7       0.310
  J18                  JUNCTION     0.000    0.056     0  02:05           0        1.27      -0.012
  J19                  JUNCTION     0.000    0.263     0  15:22           0        15.8       0.051
  J2                   JUNCTION     0.000    0.033     0  05:11           0        2.07       0.161
  J3                   JUNCTION     0.000    0.266     0  14:50           0        9.46       0.225
  J4                   JUNCTION     0.000    0.029     0  02:35           0       0.902       0.293
  J5                   JUNCTION     0.030    0.059     0  02:35       0.807        1.71       0.036
  J6                   JUNCTION     0.000    0.054     0  14:30           0        1.44       0.157
  J7                   JUNCTION     0.000    0.040     0  02:50           0        1.01       0.205
  J8                   JUNCTION     0.178    0.217     0  02:50        4.77        5.78       0.035
  J9                   JUNCTION     0.000    0.169     0  11:05           0        4.63       0.095
  Out_to_WWTP          OUTFALL      0.000    0.263     0  15:22           0        15.8       0.000
  T1                   STORAGE      0.000    0.441     0  02:50           0        16.2       1.747
  T2                   STORAGE      0.000    0.114     0  01:55           0        2.77      22.982
  T3                   STORAGE      0.000    0.399     0  14:45           0        9.92      15.543
  T4                   STORAGE      0.000    0.058     0  02:37           0        1.71       6.964
  T5                   STORAGE      0.000    0.090     0  01:41           0        2.33       5.689
  T6                   STORAGE      0.000    0.216     0  02:52           0        5.78      13.120
  
  
  **********************
  Node Surcharge Summary
  **********************
  
  No nodes were surcharged.
  
  
  *********************
  Node Flooding Summary
  *********************
  
  No nodes were flooded.
  
  
  **********************
  Storage Volume Summary
  **********************
  
  --------------------------------------------------------------------------------------------------
                         Average     Avg  Evap Exfil       Maximum     Max    Time of Max    Maximum
                          Volume    Pcnt  Pcnt  Pcnt        Volume    Pcnt     Occurrence    Outflow
  Storage Unit           1000 m3    Full  Loss  Loss       1000 m3    Full    days hr:min        CMS
  --------------------------------------------------------------------------------------------------
  T1                       0.419      60     0     0         0.660      94       0  15:21      0.263
  T2                       0.441      44     0     0         0.617      62       0  15:49      0.108
  T3                       1.882      72     0     0         2.447      94       0  15:57      0.184
  T4                       0.191      38     0     0         0.254      51       0  05:54      0.054
  T5                       0.240      48     0     0         0.344      69       0  05:11      0.033
  T6                       0.441      74     0     0         0.581      97       0  10:30      0.169
  
  
  ***********************
  Outfall Loading Summary
  ***********************
  
  -----------------------------------------------------------
                         Flow       Avg       Max       Total
                         Freq      Flow      Flow      Volume
  Outfall Node           Pcnt       CMS       CMS    10^6 ltr
  -----------------------------------------------------------
  Out_to_WWTP           99.60     0.203     0.263      15.753
  -----------------------------------------------------------
  System                99.60     0.203     0.263      15.753
  
  
  ********************
  Link Flow Summary
  ********************
  
  -----------------------------------------------------------------------------
                                 Maximum  Time of Max   Maximum    Max/    Max/
                                  |Flow|   Occurrence   |Veloc|    Full    Full
  Link                 Type          CMS  days hr:min     m/sec    Flow   Depth
  -----------------------------------------------------------------------------
  C1                   CONDUIT     0.033     0  05:13      1.00    0.01    0.11
  C10                  CONDUIT     0.216     0  02:52      1.66    0.02    0.55
  C11                  CONDUIT     0.265     0  14:55      1.98    0.01    0.09
  C12                  CONDUIT     0.162     0  11:44      1.51    0.01    0.21
  C13                  CONDUIT     0.399     0  14:45      1.55    0.02    0.68
  C14                  CONDUIT     0.263     0  15:22      2.06    0.01    0.08
  C15                  CONDUIT     0.158     0  01:35      2.25    0.50    0.45
  C16                  CONDUIT     0.156     0  01:37      1.24    0.01    0.08
  C17                  CONDUIT     0.270     0  01:37      2.10    0.01    0.20
  C18                  CONDUIT     0.114     0  01:55      3.36    0.00    0.52
  C19                  CONDUIT     0.106     0  17:32      1.65    0.04    0.17
  C2                   CONDUIT     0.053     0  14:36      1.55    0.06    0.22
  C20                  CONDUIT     0.168     0  01:41      2.34    0.01    0.08
  C21                  CONDUIT     0.056     0  02:05      1.38    0.32    0.31
  C22                  CONDUIT     0.056     0  01:56      0.96    0.03    0.19
  C23                  CONDUIT     0.441     0  02:50      1.25    0.05    0.58
  C3                   CONDUIT     0.186     0  18:38      2.27    0.07    0.17
  C4                   CONDUIT     0.090     0  01:41      3.06    0.02    0.55
  C5                   CONDUIT     0.029     0  02:35      1.23    0.49    0.55
  C6                   CONDUIT     0.029     0  02:38      1.10    0.46    0.40
  C7                   CONDUIT     0.058     0  02:37      1.44    0.01    0.54
  C8                   CONDUIT     0.040     0  02:50      1.14    0.51    0.46
  C9                   CONDUIT     0.040     0  02:53      0.89    0.14    0.28
  V1                   ORIFICE     0.263     0  15:22                      1.00
  V2                   ORIFICE     0.108     0  17:25                      1.00
  V3                   ORIFICE     0.184     0  15:06                      1.00
  V4                   ORIFICE     0.054     0  14:30                      1.00
  V5                   ORIFICE     0.033     0  05:11                      1.00
  V6                   ORIFICE     0.169     0  11:05                      1.00
  
  
  ***************************
  Flow Classification Summary
  ***************************
  
  -------------------------------------------------------------------------------------
                      Adjusted    ---------- Fraction of Time in Flow Class ---------- 
                       /Actual         Up    Down  Sub   Sup   Up    Down  Norm  Inlet 
  Conduit               Length    Dry  Dry   Dry   Crit  Crit  Crit  Crit  Ltd   Ctrl  
  -------------------------------------------------------------------------------------
  C1                      1.00   0.00  0.00  0.00  0.35  0.65  0.00  0.00  0.98  0.00
  C10                     1.00   0.00  0.00  0.00  0.98  0.02  0.00  0.00  0.99  0.00
  C11                     1.00   0.00  0.00  0.00  0.12  0.88  0.00  0.00  1.00  0.00
  C12                     1.00   0.00  0.00  0.00  0.77  0.23  0.00  0.00  0.96  0.00
  C13                     1.00   0.00  0.00  0.00  0.95  0.05  0.00  0.00  0.50  0.00
  C14                     1.00   0.00  0.00  0.00  0.00  0.99  0.00  0.00  0.61  0.00
  C15                     1.00   0.00  0.00  0.00  0.00  1.00  0.00  0.00  0.00  0.00
  C16                     1.00   0.00  0.00  0.00  0.43  0.57  0.00  0.00  0.32  0.00
  C17                     1.00   0.00  0.00  0.00  0.48  0.52  0.00  0.00  0.99  0.00
  C18                     1.00   0.00  0.00  0.00  0.98  0.02  0.00  0.00  0.99  0.00
  C19                     1.00   0.00  0.00  0.00  0.94  0.06  0.00  0.00  1.00  0.00
  C2                      1.00   0.00  0.00  0.00  0.41  0.59  0.00  0.00  0.99  0.00
  C20                     1.00   0.00  0.00  0.00  0.70  0.30  0.00  0.00  0.99  0.00
  C21                     1.00   0.00  0.00  0.00  0.00  1.00  0.00  0.00  0.00  0.00
  C22                     1.00   0.00  0.00  0.00  0.99  0.01  0.00  0.00  1.00  0.00
  C23                     1.00   0.00  0.00  0.00  0.97  0.03  0.00  0.00  0.98  0.00
  C3                      1.00   0.00  0.00  0.00  0.02  0.98  0.00  0.00  0.42  0.00
  C4                      1.00   0.00  0.00  0.00  0.98  0.02  0.00  0.00  0.99  0.00
  C5                      1.00   0.00  0.00  0.00  0.91  0.09  0.00  0.00  0.99  0.00
  C6                      1.00   0.00  0.00  0.00  0.00  1.00  0.00  0.00  0.00  0.00
  C7                      1.00   0.00  0.00  0.00  0.98  0.02  0.00  0.00  0.99  0.00
  C8                      1.00   0.00  0.00  0.00  0.04  0.96  0.00  0.00  0.00  0.00
  C9                      1.00   0.00  0.00  0.00  1.00  0.00  0.00  0.00  1.00  0.00
  
  
  *************************
  Conduit Surcharge Summary
  *************************
  
  ----------------------------------------------------------------------------
                                                           Hours        Hours 
                         --------- Hours Full --------   Above Full   Capacity
  Conduit                Both Ends  Upstream  Dnstream   Normal Flow   Limited
  ----------------------------------------------------------------------------
  C10                         0.01      0.01     19.55      0.01         0.01
  C13                         0.01      0.01     18.67      0.01         0.01
  C18                         0.01      0.01     17.06      0.01         0.01
  C23                         0.01      0.01     19.30      0.01         0.01
  C4                          0.01      0.01     20.08      0.01         0.01
  C7                          0.01      0.01     19.40      0.01         0.01
  

  Analysis begun on:  Sun Jul 17 21:58:31 2022
  Analysis ended on:  Sun Jul 17 21:58:35 2022
  Total elapsed time: 00:00:04