
  EPA STORM WATER MANAGEMENT MODEL - VERSION 5.1 (Build 5.3.0.dev0)
  --------------------------------------------------------------

  
  *********************************************************
  NOTE: The summary statistics displayed in this report are
  based on results found at every computational time step,  
  not just on results from each reporting time step.
  *********************************************************
  
  ****************
  Analysis Options
  ****************
  Flow Units ............... CMS
  Process Models:
    Rainfall/Runoff ........ YES
    RDII ................... NO
    Snowmelt ............... NO
    Groundwater ............ NO
    Flow Routing ........... YES
    Ponding Allowed ........ NO
    Water Quality .......... NO
  Infiltration Method ...... HORTON
  Flow Routing Method ...... DYNWAVE
  Surcharge Method ......... EXTRAN
  Starting Date ............ 07/23/2007 19:10:00
  Ending Date .............. 07/24/2007 09:15:00
  Antecedent Dry Days ...... 0.0
  Report Time Step ......... 00:05:00
  Wet Time Step ............ 00:05:00
  Dry Time Step ............ 01:00:00
  Routing Time Step ........ 30.00 sec
  Variable Time Step ....... YES
  Maximum Trials ........... 8
  Number of Threads ........ 1
  Head Tolerance ........... 0.001500 m
  
  
  **************************        Volume         Depth
  Runoff Quantity Continuity     hectare-m            mm
  **************************     ---------       -------
  Total Precipitation ......         1.806        10.020
  Evaporation Loss .........         0.000         0.000
  Infiltration Loss ........         0.000         0.000
  Surface Runoff ...........         1.778         9.869
  Final Storage ............         0.028         0.157
  Continuity Error (%) .....        -0.057
  
  
  **************************        Volume        Volume
  Flow Routing Continuity        hectare-m      10^6 ltr
  **************************     ---------     ---------
  Dry Weather Inflow .......         0.299         2.995
  Wet Weather Inflow .......         1.778        17.781
  Groundwater Inflow .......         0.000         0.000
  RDII Inflow ..............         0.000         0.000
  External Inflow ..........         0.000         0.000
  External Outflow .........         1.063        10.634
  Flooding Loss ............         0.089         0.892
  Evaporation Loss .........         0.000         0.000
  Exfiltration Loss ........         0.000         0.000
  Initial Stored Volume ....         0.000         0.000
  Final Stored Volume ......         0.714         7.140
  Continuity Error (%) .....        10.154
  
  
  *************************
  Highest Continuity Errors
  *************************
  Node T2 (32.38%)
  Node T3 (19.88%)
  Node T6 (17.54%)
  Node T5 (13.47%)
  Node T4 (13.37%)
  
  
  ***************************
  Time-Step Critical Elements
  ***************************
  Link C15 (37.21%)
  
  
  ********************************
  Highest Flow Instability Indexes
  ********************************
  Link C13 (9)
  Link C3 (5)
  Link C23 (4)
  Link V3 (4)
  Link C11 (4)
  
  
  *************************
  Routing Time Step Summary
  *************************
  Minimum Time Step           :     0.02 sec
  Average Time Step           :    26.83 sec
  Maximum Time Step           :    30.00 sec
  Percent in Steady State     :     8.34
  Average Iterations per Step :     2.04
  Percent Not Converging      :     0.00
  
  
  ***************************
  Subcatchment Runoff Summary
  ***************************
  
  ------------------------------------------------------------------------------------------------------------------------------
                            Total      Total      Total      Total     Imperv       Perv      Total       Total     Peak  Runoff
                           Precip      Runon       Evap      Infil     Runoff     Runoff     Runoff      Runoff   Runoff   Coeff
  Subcatchment                 mm         mm         mm         mm         mm         mm         mm    10^6 ltr      CMS
  ------------------------------------------------------------------------------------------------------------------------------
  SC01                      10.12       0.00       0.00       0.00      10.01       0.00      10.01        3.30     0.24   0.989
  SC010                     10.12       0.00       0.00       0.00       9.97       0.00       9.97        1.17     0.08   0.985
  SC02                       9.93       0.00       0.00       0.00       9.81       0.00       9.81        2.23     0.19   0.988
  SC03                       9.94       0.00       0.00       0.00       9.87       0.00       9.87        1.78     0.11   0.993
  SC04                       9.93       0.00       0.00       0.00       9.71       0.00       9.71        0.67     0.05   0.978
  SC05                      10.12       0.00       0.00       0.00      10.00       0.00      10.00        1.56     0.11   0.988
  SC06                      10.04       0.00       0.00       0.00       9.78       0.00       9.78        3.18     0.21   0.974
  SC07                       9.93       0.00       0.00       0.00       9.71       0.00       9.71        0.46     0.04   0.978
  SC08                       9.94       0.00       0.00       0.00       9.81       0.00       9.81        2.75     0.17   0.987
  SC09                      10.04       0.00       0.00       0.00       9.88       0.00       9.88        0.68     0.05   0.984
  
  
  ******************
  Node Depth Summary
  ******************
  
  ---------------------------------------------------------------------------------
                                 Average  Maximum  Maximum  Time of Max    Reported
                                   Depth    Depth      HGL   Occurrence   Max Depth
  Node                 Type       Meters   Meters   Meters  days hr:min      Meters
  ---------------------------------------------------------------------------------
  CSO10                JUNCTION     0.12     0.23    30.23     0  04:40        0.23
  CSO7                 JUNCTION     0.08     0.15    34.15     0  03:45        0.15
  CSO8                 JUNCTION     0.13     0.24    32.24     0  05:20        0.24
  CSO9                 JUNCTION     0.10     0.19    40.19     0  03:45        0.19
  J1                   JUNCTION     0.07     0.11    34.11     0  04:40        0.11
  J10                  JUNCTION     0.10     0.16    29.16     0  05:25        0.16
  J11                  JUNCTION     0.10     0.18    31.18     0  05:25        0.18
  J12                  JUNCTION     0.42     0.70    26.70     0  06:16        0.70
  J13                  JUNCTION     0.06     0.12    29.12     0  03:45        0.12
  J14                  JUNCTION     0.12     0.19    20.19     0  07:50        0.19
  J15                  JUNCTION     0.17     0.23    15.23     0  03:53        0.23
  J16                  JUNCTION     0.07     0.12    30.12     0  04:40        0.12
  J17                  JUNCTION     0.05     0.14    20.14     0  06:20        0.14
  J18                  JUNCTION     0.06     0.11    29.11     0  04:42        0.10
  J19                  JUNCTION     0.15     0.17     8.17     0  04:15        0.17
  J2                   JUNCTION     0.06     0.08    25.08     0  06:30        0.08
  J3                   JUNCTION     0.11     0.16    18.16     0  06:28        0.16
  J4                   JUNCTION     0.10     0.18    33.18     0  03:47        0.18
  J5                   JUNCTION     0.06     0.10    32.10     0  03:46        0.10
  J6                   JUNCTION     0.06     0.11    25.11     0  06:20        0.11
  J7                   JUNCTION     0.08     0.14    39.14     0  03:48        0.14
  J8                   JUNCTION     0.10     0.17    36.17     0  03:48        0.17
  J9                   JUNCTION     0.10     0.16    29.16     0  05:23        0.16
  Out_to_WWTP          OUTFALL      0.15     0.17     6.17     0  06:13        0.17
  T1                   STORAGE      3.45     5.00    15.00     0  04:15        5.00
  T2                   STORAGE      2.93     4.34    25.34     0  14:05        4.34
  T3                   STORAGE      3.29     4.70    26.70     0  06:28        4.69
  T4                   STORAGE      2.46     3.80    30.80     0  07:28        3.80
  T5                   STORAGE      2.86     4.30    31.30     0  06:28        4.30
  T6                   STORAGE      3.57     5.00    36.00     0  13:06        5.00
  
  
  *******************
  Node Inflow Summary
  *******************
  
  -------------------------------------------------------------------------------------------------
                                  Maximum  Maximum                  Lateral       Total        Flow
                                  Lateral    Total  Time of Max      Inflow      Inflow     Balance
                                   Inflow   Inflow   Occurrence      Volume      Volume       Error
  Node                 Type           CMS      CMS  days hr:min    10^6 ltr    10^6 ltr     Percent
  -------------------------------------------------------------------------------------------------
  CSO10                JUNCTION     0.084    0.084     0  04:40        1.28        1.28       0.179
  CSO7                 JUNCTION     0.038    0.038     0  03:45       0.689       0.689       0.338
  CSO8                 JUNCTION     0.167    0.167     0  05:25        2.87        2.87       0.196
  CSO9                 JUNCTION     0.049    0.049     0  03:45       0.835       0.835       0.199
  J1                   JUNCTION     0.116    0.116     0  04:40           2           2       0.427
  J10                  JUNCTION     0.116    0.280     0  05:24        2.08        4.93       0.142
  J11                  JUNCTION     0.000    0.167     0  05:25           0        2.86       0.334
  J12                  JUNCTION     0.000    0.445     0  05:25           0         8.6      -0.411
  J13                  JUNCTION     0.192    0.192     0  03:45         2.6         2.6       0.050
  J14                  JUNCTION     0.000    0.184     0  06:28           0        4.11      -1.330
  J15                  JUNCTION     0.000    0.493     0  06:20           0        12.4       1.178
  J16                  JUNCTION     0.246    0.246     0  04:40        3.74        3.74       0.292
  J17                  JUNCTION     0.000    0.125     0  06:15           0       0.888       0.478
  J18                  JUNCTION     0.000    0.084     0  04:40           0        1.28       0.422
  J19                  JUNCTION     0.000    0.271     0  04:15           0        10.6       0.089
  J2                   JUNCTION     0.000    0.036     0  06:28           0        1.43       0.315
  J3                   JUNCTION     0.000    0.290     0  06:19           0        6.57       1.559
  J4                   JUNCTION     0.000    0.038     0  03:45           0       0.687       0.560
  J5                   JUNCTION     0.053    0.090     0  03:45        0.77        1.45       0.150
  J6                   JUNCTION     0.000    0.069     0  06:15           0       0.979       0.322
  J7                   JUNCTION     0.000    0.049     0  03:46           0       0.833       0.511
  J8                   JUNCTION     0.216    0.264     0  03:45        3.92        4.75       0.274
  J9                   JUNCTION     0.000    0.167     0  06:27           0        3.26      -0.060
  Out_to_WWTP          OUTFALL      0.000    0.271     0  04:16           0        10.6       0.000
  T1                   STORAGE      0.000    0.451     0  03:54           0        12.2       3.286
  T2                   STORAGE      0.000    0.191     0  03:45           0         2.6      47.888
  T3                   STORAGE      0.000    0.424     0  05:00           0        8.64      24.806
  T4                   STORAGE      0.000    0.089     0  03:46           0        1.45      15.433
  T5                   STORAGE      0.000    0.115     0  04:41           0        1.99      15.563
  T6                   STORAGE      0.000    0.263     0  03:48           0        4.74      21.264
  
  
  **********************
  Node Surcharge Summary
  **********************
  
  No nodes were surcharged.
  
  
  *********************
  Node Flooding Summary
  *********************
  
  Flooding refers to all water that overflows a node, whether it ponds or not.
  --------------------------------------------------------------------------
                                                             Total   Maximum
                                 Maximum   Time of Max       Flood    Ponded
                        Hours       Rate    Occurrence      Volume     Depth
  Node                 Flooded       CMS   days hr:min    10^6 ltr    Meters
  --------------------------------------------------------------------------
  T1                      2.99     0.173      0  04:44       0.848     0.000
  T6                      0.99     0.014      0  13:06       0.044     0.000
  
  
  **********************
  Storage Volume Summary
  **********************
  
  --------------------------------------------------------------------------------------------------
                         Average     Avg  Evap Exfil       Maximum     Max    Time of Max    Maximum
                          Volume    Pcnt  Pcnt  Pcnt        Volume    Pcnt     Occurrence    Outflow
  Storage Unit           1000 m3    Full  Loss  Loss       1000 m3    Full    days hr:min        CMS
  --------------------------------------------------------------------------------------------------
  T1                       0.483      69     0     0         0.700     100       0  04:15      0.271
  T2                       0.587      59     0     0         0.868      87       0  14:05      0.125
  T3                       1.712      66     0     0         2.443      94       0  06:28      0.260
  T4                       0.246      49     0     0         0.380      76       0  07:28      0.069
  T5                       0.286      57     0     0         0.430      86       0  06:28      0.036
  T6                       0.429      71     0     0         0.600     100       0  13:06      0.167
  
  
  ***********************
  Outfall Loading Summary
  ***********************
  
  -----------------------------------------------------------
                         Flow       Avg       Max       Total
                         Freq      Flow      Flow      Volume
  Outfall Node           Pcnt       CMS       CMS    10^6 ltr
  -----------------------------------------------------------
  Out_to_WWTP           99.41     0.212     0.271      10.634
  -----------------------------------------------------------
  System                99.41     0.212     0.271      10.634
  
  
  ********************
  Link Flow Summary
  ********************
  
  -----------------------------------------------------------------------------
                                 Maximum  Time of Max   Maximum    Max/    Max/
                                  |Flow|   Occurrence   |Veloc|    Full    Full
  Link                 Type          CMS  days hr:min     m/sec    Flow   Depth
  -----------------------------------------------------------------------------
  C1                   CONDUIT     0.036     0  06:30      1.00    0.01    0.12
  C10                  CONDUIT     0.263     0  03:48      1.62    0.03    0.56
  C11                  CONDUIT     0.274     0  06:28      1.96    0.01    0.10
  C12                  CONDUIT     0.165     0  05:23      1.15    0.01    0.21
  C13                  CONDUIT     0.424     0  05:00      1.43    0.02    0.68
  C14                  CONDUIT     0.271     0  04:16      2.08    0.02    0.09
  C15                  CONDUIT     0.167     0  05:25      2.28    0.53    0.47
  C16                  CONDUIT     0.167     0  05:26      1.28    0.02    0.09
  C17                  CONDUIT     0.280     0  05:25      1.99    0.01    0.20
  C18                  CONDUIT     0.191     0  03:45      3.92    0.01    0.53
  C19                  CONDUIT     0.123     0  06:20      1.33    0.04    0.18
  C2                   CONDUIT     0.068     0  06:20      1.73    0.08    0.23
  C20                  CONDUIT     0.244     0  04:41      3.28    0.01    0.09
  C21                  CONDUIT     0.084     0  04:40      1.54    0.48    0.39
  C22                  CONDUIT     0.083     0  04:42      1.10    0.04    0.21
  C23                  CONDUIT     0.451     0  03:54      1.21    0.05    0.58
  C3                   CONDUIT     0.187     0  06:18      2.24    0.07    0.17
  C4                   CONDUIT     0.115     0  04:41      3.48    0.03    0.56
  C5                   CONDUIT     0.038     0  03:45      1.20    0.65    0.64
  C6                   CONDUIT     0.037     0  03:48      1.15    0.59    0.47
  C7                   CONDUIT     0.089     0  03:46      1.41    0.02    0.55
  C8                   CONDUIT     0.049     0  03:46      1.20    0.61    0.51
  C9                   CONDUIT     0.048     0  03:48      0.94    0.16    0.31
  V1                   ORIFICE     0.271     0  04:15                      1.00
  V2                   ORIFICE     0.125     0  06:15                      1.00
  V3                   ORIFICE     0.184     0  06:28                      1.00
  V4                   ORIFICE     0.069     0  06:15                      1.00
  V5                   ORIFICE     0.036     0  06:28                      1.00
  V6                   ORIFICE     0.167     0  06:27                      1.00
  
  
  ***************************
  Flow Classification Summary
  ***************************
  
  -------------------------------------------------------------------------------------
                      Adjusted    ---------- Fraction of Time in Flow Class ---------- 
                       /Actual         Up    Down  Sub   Sup   Up    Down  Norm  Inlet 
  Conduit               Length    Dry  Dry   Dry   Crit  Crit  Crit  Crit  Ltd   Ctrl  
  -------------------------------------------------------------------------------------
  C1                      1.00   0.00  0.00  0.00  0.37  0.62  0.00  0.00  0.97  0.00
  C10                     1.00   0.00  0.00  0.00  0.97  0.03  0.00  0.00  0.99  0.00
  C11                     1.00   0.00  0.00  0.00  0.24  0.76  0.00  0.00  1.00  0.00
  C12                     1.00   0.00  0.00  0.00  0.90  0.10  0.00  0.00  1.00  0.00
  C13                     1.00   0.00  0.00  0.00  0.92  0.08  0.00  0.00  0.31  0.00
  C14                     1.00   0.00  0.00  0.00  0.00  0.99  0.00  0.00  0.38  0.00
  C15                     1.00   0.02  0.00  0.00  0.00  0.98  0.00  0.00  0.00  0.00
  C16                     1.00   0.00  0.02  0.00  0.30  0.68  0.00  0.00  0.21  0.00
  C17                     1.00   0.00  0.00  0.00  0.58  0.42  0.00  0.00  0.99  0.00
  C18                     1.00   0.00  0.00  0.00  0.97  0.03  0.00  0.00  0.98  0.00
  C19                     1.00   0.00  0.00  0.00  0.99  0.01  0.00  0.00  1.00  0.00
  C2                      1.00   0.00  0.00  0.00  0.44  0.56  0.00  0.00  0.99  0.00
  C20                     1.00   0.00  0.00  0.00  0.53  0.47  0.00  0.00  0.99  0.00
  C21                     1.00   0.00  0.00  0.00  0.00  1.00  0.00  0.00  0.00  0.00
  C22                     1.00   0.00  0.00  0.00  0.96  0.04  0.00  0.00  1.00  0.00
  C23                     1.00   0.00  0.00  0.00  0.94  0.06  0.00  0.00  0.97  0.00
  C3                      1.00   0.00  0.00  0.00  0.03  0.97  0.00  0.00  0.52  0.00
  C4                      1.00   0.00  0.00  0.00  0.98  0.02  0.00  0.00  0.99  0.00
  C5                      1.00   0.00  0.00  0.00  0.87  0.13  0.00  0.00  0.99  0.00
  C6                      1.00   0.00  0.00  0.00  0.01  0.99  0.00  0.00  0.00  0.00
  C7                      1.00   0.00  0.00  0.00  0.97  0.03  0.00  0.00  0.98  0.00
  C8                      1.00   0.00  0.00  0.00  0.00  1.00  0.00  0.00  0.00  0.00
  C9                      1.00   0.00  0.00  0.00  1.00  0.00  0.00  0.00  1.00  0.00
  
  
  *************************
  Conduit Surcharge Summary
  *************************
  
  ----------------------------------------------------------------------------
                                                           Hours        Hours 
                         --------- Hours Full --------   Above Full   Capacity
  Conduit                Both Ends  Upstream  Dnstream   Normal Flow   Limited
  ----------------------------------------------------------------------------
  C10                         0.01      0.01     11.48      0.01         0.01
  C13                         0.01      0.01     10.33      0.01         0.01
  C18                         0.01      0.01     10.28      0.01         0.01
  C23                         0.01      0.01     11.54      0.01         0.01
  C4                          0.01      0.01     11.58      0.01         0.01
  C7                          0.01      0.01     10.92      0.01         0.01
  

  Analysis begun on:  Sun Jul 17 20:01:23 2022
  Analysis ended on:  Sun Jul 17 20:01:25 2022
  Total elapsed time: 00:00:02