
  EPA STORM WATER MANAGEMENT MODEL - VERSION 5.1 (Build 5.3.0.dev0)
  --------------------------------------------------------------

  
  *********************************************************
  NOTE: The summary statistics displayed in this report are
  based on results found at every computational time step,  
  not just on results from each reporting time step.
  *********************************************************
  
  ****************
  Analysis Options
  ****************
  Flow Units ............... CMS
  Process Models:
    Rainfall/Runoff ........ YES
    RDII ................... NO
    Snowmelt ............... NO
    Groundwater ............ NO
    Flow Routing ........... YES
    Ponding Allowed ........ NO
    Water Quality .......... NO
  Infiltration Method ...... HORTON
  Flow Routing Method ...... DYNWAVE
  Surcharge Method ......... EXTRAN
  Starting Date ............ 05/31/2009 08:30:00
  Ending Date .............. 05/31/2009 22:15:00
  Antecedent Dry Days ...... 0.0
  Report Time Step ......... 00:05:00
  Wet Time Step ............ 00:05:00
  Dry Time Step ............ 01:00:00
  Routing Time Step ........ 30.00 sec
  Variable Time Step ....... YES
  Maximum Trials ........... 8
  Number of Threads ........ 1
  Head Tolerance ........... 0.001500 m
  
  
  **************************        Volume         Depth
  Runoff Quantity Continuity     hectare-m            mm
  **************************     ---------       -------
  Total Precipitation ......         1.801         9.994
  Evaporation Loss .........         0.000         0.000
  Infiltration Loss ........         0.000         0.000
  Surface Runoff ...........         1.761         9.771
  Final Storage ............         0.049         0.270
  Continuity Error (%) .....        -0.471
  
  
  **************************        Volume        Volume
  Flow Routing Continuity        hectare-m      10^6 ltr
  **************************     ---------     ---------
  Dry Weather Inflow .......         0.575         5.754
  Wet Weather Inflow .......         1.758        17.585
  Groundwater Inflow .......         0.000         0.000
  RDII Inflow ..............         0.000         0.000
  External Inflow ..........         0.000         0.000
  External Outflow .........         0.927         9.273
  Flooding Loss ............         0.315         3.155
  Evaporation Loss .........         0.000         0.000
  Exfiltration Loss ........         0.000         0.000
  Initial Stored Volume ....         0.000         0.000
  Final Stored Volume ......         0.822         8.220
  Continuity Error (%) .....        11.527
  
  
  *************************
  Highest Continuity Errors
  *************************
  Node T2 (30.85%)
  Node T4 (19.71%)
  Node T5 (19.58%)
  Node T3 (17.37%)
  Node T6 (13.67%)
  
  
  ***************************
  Time-Step Critical Elements
  ***************************
  Link C15 (35.19%)
  
  
  ********************************
  Highest Flow Instability Indexes
  ********************************
  Link C15 (4)
  Link C13 (3)
  Link C20 (3)
  Link C18 (2)
  Link C4 (2)
  
  
  *************************
  Routing Time Step Summary
  *************************
  Minimum Time Step           :     0.04 sec
  Average Time Step           :    27.00 sec
  Maximum Time Step           :    30.00 sec
  Percent in Steady State     :     3.88
  Average Iterations per Step :     2.29
  Percent Not Converging      :     0.45
  
  
  ***************************
  Subcatchment Runoff Summary
  ***************************
  
  ------------------------------------------------------------------------------------------------------------------------------
                            Total      Total      Total      Total     Imperv       Perv      Total       Total     Peak  Runoff
                           Precip      Runon       Evap      Infil     Runoff     Runoff     Runoff      Runoff   Runoff   Coeff
  Subcatchment                 mm         mm         mm         mm         mm         mm         mm    10^6 ltr      CMS
  ------------------------------------------------------------------------------------------------------------------------------
  SC01                       9.01       0.00       0.00       0.00       8.89       0.00       8.89        2.94     0.71   0.987
  SC010                      9.01       0.00       0.00       0.00       8.82       0.00       8.82        1.04     0.20   0.979
  SC02                       8.28       0.00       0.00       0.00       8.15       0.00       8.15        1.86     0.45   0.985
  SC03                      11.32       0.00       0.00       0.00      11.31       0.00      11.31        2.04     1.08   0.999
  SC04                       8.28       0.00       0.00       0.00       7.90       0.00       7.90        0.54     0.09   0.954
  SC05                       9.01       0.00       0.00       0.00       8.88       0.00       8.88        1.38     0.32   0.985
  SC06                      11.45       0.00       0.00       0.00      10.91       0.00      10.91        3.55     0.66   0.953
  SC07                       8.28       0.00       0.00       0.00       7.90       0.00       7.90        0.38     0.06   0.954
  SC08                      11.32       0.00       0.00       0.00      11.13       0.00      11.13        3.12     1.15   0.983
  SC09                      11.45       0.00       0.00       0.00      11.19       0.00      11.19        0.77     0.19   0.977
  
  
  ******************
  Node Depth Summary
  ******************
  
  ---------------------------------------------------------------------------------
                                 Average  Maximum  Maximum  Time of Max    Reported
                                   Depth    Depth      HGL   Occurrence   Max Depth
  Node                 Type       Meters   Meters   Meters  days hr:min      Meters
  ---------------------------------------------------------------------------------
  CSO10                JUNCTION     0.13     1.00    31.00     0  11:20        0.67
  CSO7                 JUNCTION     0.10     0.53    34.53     0  11:25        0.45
  CSO8                 JUNCTION     0.25     2.00    34.00     0  11:20        2.00
  CSO9                 JUNCTION     0.21     2.00    42.00     0  11:17        2.00
  J1                   JUNCTION     0.07     0.19    34.19     0  11:20        0.18
  J10                  JUNCTION     0.11     0.37    29.37     0  11:25        0.36
  J11                  JUNCTION     0.11     0.30    31.30     0  11:42        0.30
  J12                  JUNCTION     0.26     1.00    27.00     0  12:15        1.00
  J13                  JUNCTION     0.07     0.18    29.18     0  11:21        0.18
  J14                  JUNCTION     0.11     0.15    20.15     0  12:11        0.15
  J15                  JUNCTION     0.17     0.33    15.33     0  11:25        0.33
  J16                  JUNCTION     0.07     0.21    30.21     0  11:20        0.20
  J17                  JUNCTION     0.06     0.07    20.07     0  12:34        0.07
  J18                  JUNCTION     0.06     0.16    29.16     0  11:23        0.16
  J19                  JUNCTION     0.14     0.17     8.17     0  11:30        0.17
  J2                   JUNCTION     0.06     0.08    25.08     0  12:13        0.08
  J3                   JUNCTION     0.11     0.14    18.14     0  12:37        0.14
  J4                   JUNCTION     0.12     0.28    33.28     0  11:30        0.28
  J5                   JUNCTION     0.06     0.13    32.13     0  11:27        0.13
  J6                   JUNCTION     0.06     0.07    25.07     0  12:42        0.07
  J7                   JUNCTION     0.09     0.23    39.23     0  11:35        0.23
  J8                   JUNCTION     0.12     0.29    36.29     0  11:25        0.29
  J9                   JUNCTION     0.09     0.11    29.11     0  12:10        0.11
  Out_to_WWTP          OUTFALL      0.14     0.17     6.17     0  12:55        0.17
  T1                   STORAGE      2.93     5.00    15.00     0  11:28        5.00
  T2                   STORAGE      2.00     4.23    25.23     0  12:31        4.23
  T3                   STORAGE      2.26     5.00    27.00     0  12:09        5.00
  T4                   STORAGE      2.11     4.24    31.24     0  12:40        4.24
  T5                   STORAGE      2.66     5.00    32.00     0  11:49        5.00
  T6                   STORAGE      3.34     5.00    36.00     0  08:09        5.00
  
  
  *******************
  Node Inflow Summary
  *******************
  
  -------------------------------------------------------------------------------------------------
                                  Maximum  Maximum                  Lateral       Total        Flow
                                  Lateral    Total  Time of Max      Inflow      Inflow     Balance
                                   Inflow   Inflow   Occurrence      Volume      Volume       Error
  Node                 Type           CMS      CMS  days hr:min    10^6 ltr    10^6 ltr     Percent
  -------------------------------------------------------------------------------------------------
  CSO10                JUNCTION     0.204    0.204     0  11:20        1.24        1.24      -0.024
  CSO7                 JUNCTION     0.067    0.067     0  11:25       0.803       0.803       0.037
  CSO8                 JUNCTION     1.146    1.146     0  11:25        3.47        3.47       0.002
  CSO9                 JUNCTION     0.198    0.198     0  11:20        1.06        1.06       0.006
  J1                   JUNCTION     0.331    0.331     0  11:20        2.21        2.21      -0.041
  J10                  JUNCTION     1.087    1.563     0  11:25         2.6        5.65      -0.070
  J11                  JUNCTION     0.000    0.486     0  11:42           0        3.05       0.221
  J12                  JUNCTION     0.000    1.594     0  11:26           0        8.61      10.535
  J13                  JUNCTION     0.463    0.463     0  11:20        2.54        2.54      -0.137
  J14                  JUNCTION     0.000    0.124     0  12:10           0         3.6       0.206
  J15                  JUNCTION     0.000    1.062     0  11:21           0        11.6       0.719
  J16                  JUNCTION     0.727    0.727     0  11:20        3.75        3.75      -0.066
  J17                  JUNCTION     0.000    0.031     0  12:32           0       0.945       0.627
  J18                  JUNCTION     0.000    0.201     0  11:21           0        1.24       0.030
  J19                  JUNCTION     0.000    0.271     0  11:28           0        9.29       0.132
  J2                   JUNCTION     0.000    0.039     0  11:49           0         1.3       0.409
  J3                   JUNCTION     0.000    0.189     0  12:22           0        5.71       0.666
  J4                   JUNCTION     0.000    0.067     0  11:25           0       0.802       0.179
  J5                   JUNCTION     0.089    0.146     0  11:25       0.732        1.53       0.021
  J6                   JUNCTION     0.000    0.026     0  12:40           0       0.826       0.464
  J7                   JUNCTION     0.000    0.127     0  11:35           0        1.02       0.212
  J8                   JUNCTION     0.686    0.808     0  11:25        4.93        5.95       0.059
  J9                   JUNCTION     0.000    0.075     0  08:09           0         2.8       0.604
  Out_to_WWTP          OUTFALL      0.000    0.271     0  11:30           0        9.27       0.000
  T1                   STORAGE      0.000    0.959     0  11:25           0        11.5       6.937
  T2                   STORAGE      0.000    0.454     0  11:21           0        2.54      44.606
  T3                   STORAGE      0.000    1.463     0  11:28           0        7.79      21.020
  T4                   STORAGE      0.000    0.145     0  11:27           0        1.53      24.555
  T5                   STORAGE      0.000    0.323     0  11:21           0        2.21      24.341
  T6                   STORAGE      0.000    0.803     0  11:25           0        5.95      15.837
  
  
  **********************
  Node Surcharge Summary
  **********************
  
  Surcharging occurs when water rises above the top of the highest conduit.
  ---------------------------------------------------------------------
                                               Max. Height   Min. Depth
                                   Hours       Above Crown    Below Rim
  Node                 Type      Surcharged         Meters       Meters
  ---------------------------------------------------------------------
  CSO10                JUNCTION        0.18          0.560        0.000
  CSO7                 JUNCTION        0.19          0.274        0.670
  CSO8                 JUNCTION        0.50          1.547        0.000
  CSO9                 JUNCTION        0.47          1.682        0.000
  
  
  *********************
  Node Flooding Summary
  *********************
  
  Flooding refers to all water that overflows a node, whether it ponds or not.
  --------------------------------------------------------------------------
                                                             Total   Maximum
                                 Maximum   Time of Max       Flood    Ponded
                        Hours       Rate    Occurrence      Volume     Depth
  Node                 Flooded       CMS   days hr:min    10^6 ltr    Meters
  --------------------------------------------------------------------------
  CSO10                   0.01     0.020      0  11:20       0.000     0.000
  CSO8                    0.37     0.656      0  11:25       0.418     0.000
  CSO9                    0.29     0.074      0  11:20       0.044     0.000
  T1                      1.19     0.670      0  11:28       0.821     0.000
  T3                      0.17     0.480      0  12:09       0.088     0.000
  T5                      0.41     0.055      0  11:49       0.030     0.000
  T6                      2.97     0.728      0  11:25       1.752     0.000
  
  
  **********************
  Storage Volume Summary
  **********************
  
  --------------------------------------------------------------------------------------------------
                         Average     Avg  Evap Exfil       Maximum     Max    Time of Max    Maximum
                          Volume    Pcnt  Pcnt  Pcnt        Volume    Pcnt     Occurrence    Outflow
  Storage Unit           1000 m3    Full  Loss  Loss       1000 m3    Full    days hr:min        CMS
  --------------------------------------------------------------------------------------------------
  T1                       0.410      59     0     0         0.700     100       0  11:28      0.271
  T2                       0.400      40     0     0         0.845      85       0  12:31      0.031
  T3                       1.174      45     0     0         2.600     100       0  12:09      0.476
  T4                       0.211      42     0     0         0.424      85       0  12:40      0.026
  T5                       0.266      53     0     0         0.500     100       0  11:49      0.039
  T6                       0.400      67     0     0         0.600     100       0  08:09      0.075
  
  
  ***********************
  Outfall Loading Summary
  ***********************
  
  -----------------------------------------------------------
                         Flow       Avg       Max       Total
                         Freq      Flow      Flow      Volume
  Outfall Node           Pcnt       CMS       CMS    10^6 ltr
  -----------------------------------------------------------
  Out_to_WWTP           99.40     0.194     0.271       9.273
  -----------------------------------------------------------
  System                99.40     0.194     0.271       9.273
  
  
  ********************
  Link Flow Summary
  ********************
  
  -----------------------------------------------------------------------------
                                 Maximum  Time of Max   Maximum    Max/    Max/
                                  |Flow|   Occurrence   |Veloc|    Full    Full
  Link                 Type          CMS  days hr:min     m/sec    Flow   Depth
  -----------------------------------------------------------------------------
  C1                   CONDUIT     0.039     0  12:13      0.92    0.01    0.11
  C10                  CONDUIT     0.803     0  11:25      1.66    0.08    0.60
  C11                  CONDUIT     0.188     0  12:37      1.73    0.01    0.11
  C12                  CONDUIT     0.075     0  11:50      1.11    0.01    0.28
  C13                  CONDUIT     1.463     0  11:28      1.45    0.09    0.75
  C14                  CONDUIT     0.271     0  11:30      2.08    0.02    0.09
  C15                  CONDUIT     0.486     0  11:42      3.56    1.55    0.83
  C16                  CONDUIT     0.486     0  11:35      1.80    0.05    0.17
  C17                  CONDUIT     1.518     0  11:26      3.75    0.08    0.28
  C18                  CONDUIT     0.454     0  11:21      3.36    0.02    0.55
  C19                  CONDUIT     0.031     0  12:34      0.57    0.01    0.20
  C2                   CONDUIT     0.026     0  12:42      0.79    0.03    0.17
  C20                  CONDUIT     0.709     0  11:21      3.20    0.02    0.13
  C21                  CONDUIT     0.201     0  11:21      1.85    1.15    0.68
  C22                  CONDUIT     0.191     0  11:23      1.53    0.09    0.30
  C23                  CONDUIT     0.959     0  11:25      1.25    0.11    0.61
  C3                   CONDUIT     0.124     0  12:12      1.79    0.05    0.14
  C4                   CONDUIT     0.323     0  11:21      3.06    0.08    0.59
  C5                   CONDUIT     0.067     0  11:25      1.36    1.14    1.00
  C6                   CONDUIT     0.060     0  11:30      1.27    0.96    0.68
  C7                   CONDUIT     0.145     0  11:27      1.44    0.04    0.56
  C8                   CONDUIT     0.127     0  11:35      1.89    1.60    0.86
  C9                   CONDUIT     0.127     0  11:35      1.29    0.43    0.52
  V1                   ORIFICE     0.271     0  11:28                      1.00
  V2                   ORIFICE     0.031     0  12:32                      0.24
  V3                   ORIFICE     0.124     0  12:10                      0.65
  V4                   ORIFICE     0.026     0  12:40                      0.35
  V5                   ORIFICE     0.039     0  11:49                      1.00
  V6                   ORIFICE     0.075     0  08:09                      0.43
  
  
  ***************************
  Flow Classification Summary
  ***************************
  
  -------------------------------------------------------------------------------------
                      Adjusted    ---------- Fraction of Time in Flow Class ---------- 
                       /Actual         Up    Down  Sub   Sup   Up    Down  Norm  Inlet 
  Conduit               Length    Dry  Dry   Dry   Crit  Crit  Crit  Crit  Ltd   Ctrl  
  -------------------------------------------------------------------------------------
  C1                      1.00   0.00  0.00  0.00  0.03  0.96  0.00  0.00  0.97  0.00
  C10                     1.00   0.00  0.00  0.00  0.98  0.02  0.00  0.00  0.99  0.00
  C11                     1.00   0.00  0.00  0.00  0.20  0.80  0.00  0.00  1.00  0.00
  C12                     1.00   0.00  0.00  0.00  0.79  0.21  0.00  0.00  0.97  0.00
  C13                     1.00   0.00  0.00  0.00  0.93  0.07  0.00  0.00  0.78  0.00
  C14                     1.00   0.00  0.00  0.00  0.00  0.99  0.00  0.00  0.47  0.00
  C15                     1.00   0.00  0.00  0.00  0.00  1.00  0.00  0.00  0.01  0.00
  C16                     1.00   0.00  0.00  0.00  0.24  0.76  0.00  0.00  0.35  0.00
  C17                     1.00   0.00  0.00  0.00  0.24  0.76  0.00  0.00  0.97  0.00
  C18                     1.00   0.00  0.00  0.00  0.97  0.03  0.00  0.00  0.98  0.00
  C19                     1.00   0.00  0.00  0.00  1.00  0.00  0.00  0.00  1.00  0.00
  C2                      1.00   0.00  0.00  0.00  0.88  0.12  0.00  0.00  0.99  0.00
  C20                     1.00   0.00  0.00  0.00  0.41  0.59  0.00  0.00  0.99  0.00
  C21                     1.00   0.00  0.00  0.00  0.01  0.99  0.00  0.00  0.00  0.00
  C22                     1.00   0.00  0.00  0.00  0.93  0.07  0.00  0.00  1.00  0.00
  C23                     1.00   0.00  0.00  0.00  0.94  0.05  0.00  0.00  0.97  0.00
  C3                      1.00   0.00  0.00  0.00  0.03  0.97  0.00  0.00  0.09  0.00
  C4                      1.00   0.00  0.00  0.00  0.98  0.02  0.00  0.00  0.99  0.00
  C5                      1.00   0.00  0.00  0.00  0.89  0.11  0.00  0.00  0.97  0.00
  C6                      1.00   0.00  0.00  0.00  0.04  0.96  0.00  0.00  0.00  0.00
  C7                      1.00   0.00  0.00  0.00  0.97  0.03  0.00  0.00  0.98  0.00
  C8                      1.00   0.00  0.00  0.00  0.08  0.92  0.00  0.00  0.00  0.00
  C9                      1.00   0.00  0.00  0.00  1.00  0.00  0.00  0.00  1.00  0.00
  
  
  *************************
  Conduit Surcharge Summary
  *************************
  
  ----------------------------------------------------------------------------
                                                           Hours        Hours 
                         --------- Hours Full --------   Above Full   Capacity
  Conduit                Both Ends  Upstream  Dnstream   Normal Flow   Limited
  ----------------------------------------------------------------------------
  C10                         0.01      0.01     10.00      0.01         0.01
  C13                         0.01      0.01      6.55      0.01         0.01
  C15                         0.01      0.49      0.01      0.52         0.01
  C18                         0.01      0.01      6.30      0.01         0.01
  C21                         0.01      0.17      0.01      0.13         0.01
  C23                         0.01      0.01      9.62      0.01         0.01
  C4                          0.01      0.01     11.21      0.01         0.01
  C5                          0.12      0.19      0.20      0.21         0.10
  C7                          0.01      0.01     10.32      0.01         0.01
  C8                          0.01      0.47      0.01      0.49         0.01
  

  Analysis begun on:  Sun Jul 17 21:31:46 2022
  Analysis ended on:  Sun Jul 17 21:31:46 2022
  Total elapsed time: < 1 sec