
  EPA STORM WATER MANAGEMENT MODEL - VERSION 5.1 (Build 5.3.0.dev0)
  --------------------------------------------------------------

  
  *********************************************************
  NOTE: The summary statistics displayed in this report are
  based on results found at every computational time step,  
  not just on results from each reporting time step.
  *********************************************************
  
  ****************
  Analysis Options
  ****************
  Flow Units ............... CMS
  Process Models:
    Rainfall/Runoff ........ YES
    RDII ................... NO
    Snowmelt ............... NO
    Groundwater ............ NO
    Flow Routing ........... YES
    Ponding Allowed ........ NO
    Water Quality .......... NO
  Infiltration Method ...... HORTON
  Flow Routing Method ...... DYNWAVE
  Surcharge Method ......... EXTRAN
  Starting Date ............ 07/10/2008 13:25:00
  Ending Date .............. 07/10/2008 23:20:00
  Antecedent Dry Days ...... 0.0
  Report Time Step ......... 00:05:00
  Wet Time Step ............ 00:05:00
  Dry Time Step ............ 01:00:00
  Routing Time Step ........ 30.00 sec
  Variable Time Step ....... YES
  Maximum Trials ........... 8
  Number of Threads ........ 1
  Head Tolerance ........... 0.001500 m
  
  
  **************************        Volume         Depth
  Runoff Quantity Continuity     hectare-m            mm
  **************************     ---------       -------
  Total Precipitation ......         0.909         5.043
  Evaporation Loss .........         0.000         0.000
  Infiltration Loss ........         0.000         0.000
  Surface Runoff ...........         0.878         4.871
  Final Storage ............         0.034         0.187
  Continuity Error (%) .....        -0.319
  
  
  **************************        Volume        Volume
  Flow Routing Continuity        hectare-m      10^6 ltr
  **************************     ---------     ---------
  Dry Weather Inflow .......         0.322         3.216
  Wet Weather Inflow .......         0.877         8.769
  Groundwater Inflow .......         0.000         0.000
  RDII Inflow ..............         0.000         0.000
  External Inflow ..........         0.000         0.000
  External Outflow .........         0.570         5.699
  Flooding Loss ............         0.000         0.003
  Evaporation Loss .........         0.000         0.000
  Exfiltration Loss ........         0.000         0.000
  Initial Stored Volume ....         0.000         0.000
  Final Stored Volume ......         0.514         5.139
  Continuity Error (%) .....         9.548
  
  
  *************************
  Highest Continuity Errors
  *************************
  Node T2 (33.34%)
  Node T6 (22.89%)
  Node T4 (22.08%)
  Node T5 (21.39%)
  Node T3 (18.10%)
  
  
  ***************************
  Time-Step Critical Elements
  ***************************
  Link C15 (27.09%)
  Link C21 (3.00%)
  
  
  ********************************
  Highest Flow Instability Indexes
  ********************************
  Link C20 (2)
  Link C4 (1)
  Link C15 (1)
  Link C21 (1)
  Link C17 (1)
  
  
  *************************
  Routing Time Step Summary
  *************************
  Minimum Time Step           :     0.11 sec
  Average Time Step           :    28.12 sec
  Maximum Time Step           :    30.00 sec
  Percent in Steady State     :     4.71
  Average Iterations per Step :     2.02
  Percent Not Converging      :     0.00
  
  
  ***************************
  Subcatchment Runoff Summary
  ***************************
  
  ------------------------------------------------------------------------------------------------------------------------------
                            Total      Total      Total      Total     Imperv       Perv      Total       Total     Peak  Runoff
                           Precip      Runon       Evap      Infil     Runoff     Runoff     Runoff      Runoff   Runoff   Coeff
  Subcatchment                 mm         mm         mm         mm         mm         mm         mm    10^6 ltr      CMS
  ------------------------------------------------------------------------------------------------------------------------------
  SC01                       5.59       0.00       0.00       0.00       5.48       0.00       5.48        1.81     0.37   0.981
  SC010                      5.59       0.00       0.00       0.00       5.43       0.00       5.43        0.64     0.11   0.971
  SC02                       6.46       0.00       0.00       0.00       6.34       0.00       6.34        1.44     0.30   0.981
  SC03                       4.09       0.00       0.00       0.00       4.03       0.00       4.03        0.72     0.14   0.984
  SC04                       6.46       0.00       0.00       0.00       6.17       0.00       6.17        0.43     0.08   0.955
  SC05                       5.59       0.00       0.00       0.00       5.47       0.00       5.47        0.85     0.16   0.978
  SC06                       4.08       0.00       0.00       0.00       3.74       0.00       3.74        1.22     0.18   0.918
  SC07                       6.46       0.00       0.00       0.00       6.17       0.00       6.17        0.29     0.05   0.955
  SC08                       4.09       0.00       0.00       0.00       3.95       0.00       3.95        1.11     0.18   0.965
  SC09                       4.08       0.00       0.00       0.00       3.89       0.00       3.89        0.27     0.04   0.952
  
  
  ******************
  Node Depth Summary
  ******************
  
  ---------------------------------------------------------------------------------
                                 Average  Maximum  Maximum  Time of Max    Reported
                                   Depth    Depth      HGL   Occurrence   Max Depth
  Node                 Type       Meters   Meters   Meters  days hr:min      Meters
  ---------------------------------------------------------------------------------
  CSO10                JUNCTION     0.11     0.28    30.28     0  06:00        0.28
  CSO7                 JUNCTION     0.09     0.22    34.22     0  06:26        0.21
  CSO8                 JUNCTION     0.10     0.26    32.26     0  06:35        0.25
  CSO9                 JUNCTION     0.08     0.19    40.19     0  06:21        0.19
  J1                   JUNCTION     0.06     0.14    34.14     0  05:51        0.14
  J10                  JUNCTION     0.08     0.17    29.17     0  06:37        0.17
  J11                  JUNCTION     0.08     0.18    31.18     0  06:37        0.18
  J12                  JUNCTION     0.11     0.20    26.20     0  06:39        0.20
  J13                  JUNCTION     0.06     0.15    29.15     0  06:26        0.15
  J14                  JUNCTION     0.10     0.12    20.12     0  08:45        0.12
  J15                  JUNCTION     0.15     0.26    15.26     0  06:01        0.25
  J16                  JUNCTION     0.06     0.15    30.15     0  05:50        0.15
  J17                  JUNCTION     0.05     0.07    20.07     0  07:38        0.07
  J18                  JUNCTION     0.05     0.12    29.12     0  06:01        0.12
  J19                  JUNCTION     0.13     0.17     8.17     0  07:01        0.17
  J2                   JUNCTION     0.06     0.07    25.07     0  07:16        0.07
  J3                   JUNCTION     0.09     0.12    18.12     0  08:16        0.12
  J4                   JUNCTION     0.11     0.25    33.25     0  06:29        0.25
  J5                   JUNCTION     0.06     0.12    32.12     0  06:27        0.12
  J6                   JUNCTION     0.05     0.07    25.07     0  07:47        0.07
  J7                   JUNCTION     0.07     0.14    39.14     0  06:27        0.14
  J8                   JUNCTION     0.09     0.17    36.17     0  06:27        0.17
  J9                   JUNCTION     0.08     0.10    29.10     0  07:45        0.10
  Out_to_WWTP          OUTFALL      0.13     0.17     6.17     0  07:15        0.17
  T1                   STORAGE      2.28     5.00    15.00     0  07:00        5.00
  T2                   STORAGE      1.62     3.32    24.32     0  07:36        3.32
  T3                   STORAGE      1.21     2.26    24.26     0  08:38        2.26
  T4                   STORAGE      1.66     3.48    30.48     0  07:45        3.48
  T5                   STORAGE      1.77     3.52    30.52     0  07:14        3.52
  T6                   STORAGE      1.85     3.84    34.84     0  07:41        3.84
  
  
  *******************
  Node Inflow Summary
  *******************
  
  -------------------------------------------------------------------------------------------------
                                  Maximum  Maximum                  Lateral       Total        Flow
                                  Lateral    Total  Time of Max      Inflow      Inflow     Balance
                                   Inflow   Inflow   Occurrence      Volume      Volume       Error
  Node                 Type           CMS      CMS  days hr:min    10^6 ltr    10^6 ltr     Percent
  -------------------------------------------------------------------------------------------------
  CSO10                JUNCTION     0.112    0.112     0  06:00       0.753       0.754       0.020
  CSO7                 JUNCTION     0.061    0.061     0  06:25       0.534       0.535       0.055
  CSO8                 JUNCTION     0.180    0.180     0  06:35        1.28        1.28      -0.008
  CSO9                 JUNCTION     0.050    0.050     0  06:20       0.431       0.431       0.017
  J1                   JUNCTION     0.180    0.180     0  05:50        1.32        1.32      -0.080
  J10                  JUNCTION     0.148    0.307     0  06:35        1.04        2.32      -0.123
  J11                  JUNCTION     0.000    0.179     0  06:35           0        1.28       0.002
  J12                  JUNCTION     0.000    0.357     0  06:37           0        3.81       0.366
  J13                  JUNCTION     0.314    0.314     0  06:25        1.83        1.83      -0.161
  J14                  JUNCTION     0.000    0.083     0  08:38           0        1.96       0.282
  J15                  JUNCTION     0.000    0.593     0  05:51           0        6.83       1.038
  J16                  JUNCTION     0.383    0.383     0  05:50        2.27        2.27      -0.082
  J17                  JUNCTION     0.000    0.027     0  07:36           0       0.607       0.900
  J18                  JUNCTION     0.000    0.112     0  06:00           0       0.754       0.066
  J19                  JUNCTION     0.000    0.271     0  07:01           0        5.71       0.193
  J2                   JUNCTION     0.000    0.033     0  07:14           0       0.761       0.585
  J3                   JUNCTION     0.000    0.139     0  08:14           0        3.23       0.946
  J4                   JUNCTION     0.000    0.060     0  06:26           0       0.534       0.284
  J5                   JUNCTION     0.080    0.134     0  06:26       0.531        1.06       0.016
  J6                   JUNCTION     0.000    0.023     0  07:45           0       0.523       0.661
  J7                   JUNCTION     0.000    0.050     0  06:22           0       0.431       0.340
  J8                   JUNCTION     0.205    0.254     0  06:25           2        2.43      -0.011
  J9                   JUNCTION     0.000    0.066     0  07:42           0         1.5       1.025
  Out_to_WWTP          OUTFALL      0.000    0.271     0  07:02           0         5.7       0.000
  T1                   STORAGE      0.000    0.571     0  06:02           0        6.76       9.081
  T2                   STORAGE      0.000    0.308     0  06:26           0        1.83      50.014
  T3                   STORAGE      0.000    0.348     0  06:39           0         3.8      22.094
  T4                   STORAGE      0.000    0.133     0  06:27           0        1.06      28.341
  T5                   STORAGE      0.000    0.179     0  05:51           0        1.32      27.214
  T6                   STORAGE      0.000    0.254     0  06:27           0        2.43      29.693
  
  
  **********************
  Node Surcharge Summary
  **********************
  
  No nodes were surcharged.
  
  
  *********************
  Node Flooding Summary
  *********************
  
  Flooding refers to all water that overflows a node, whether it ponds or not.
  --------------------------------------------------------------------------
                                                             Total   Maximum
                                 Maximum   Time of Max       Flood    Ponded
                        Hours       Rate    Occurrence      Volume     Depth
  Node                 Flooded       CMS   days hr:min    10^6 ltr    Meters
  --------------------------------------------------------------------------
  T1                      0.08     0.019      0  07:00       0.003     0.000
  
  
  **********************
  Storage Volume Summary
  **********************
  
  --------------------------------------------------------------------------------------------------
                         Average     Avg  Evap Exfil       Maximum     Max    Time of Max    Maximum
                          Volume    Pcnt  Pcnt  Pcnt        Volume    Pcnt     Occurrence    Outflow
  Storage Unit           1000 m3    Full  Loss  Loss       1000 m3    Full    days hr:min        CMS
  --------------------------------------------------------------------------------------------------
  T1                       0.319      46     0     0         0.700     100       0  07:00      0.271
  T2                       0.325      32     0     0         0.664      66       0  07:36      0.027
  T3                       0.628      24     0     0         1.177      45       0  08:38      0.083
  T4                       0.166      33     0     0         0.348      70       0  07:45      0.023
  T5                       0.177      35     0     0         0.352      70       0  07:14      0.033
  T6                       0.222      37     0     0         0.461      77       0  07:41      0.066
  
  
  ***********************
  Outfall Loading Summary
  ***********************
  
  -----------------------------------------------------------
                         Flow       Avg       Max       Total
                         Freq      Flow      Flow      Volume
  Outfall Node           Pcnt       CMS       CMS    10^6 ltr
  -----------------------------------------------------------
  Out_to_WWTP           99.29     0.162     0.271       5.699
  -----------------------------------------------------------
  System                99.29     0.162     0.271       5.699
  
  
  ********************
  Link Flow Summary
  ********************
  
  -----------------------------------------------------------------------------
                                 Maximum  Time of Max   Maximum    Max/    Max/
                                  |Flow|   Occurrence   |Veloc|    Full    Full
  Link                 Type          CMS  days hr:min     m/sec    Flow   Depth
  -----------------------------------------------------------------------------
  C1                   CONDUIT     0.033     0  07:16      0.96    0.01    0.09
  C10                  CONDUIT     0.254     0  06:27      1.81    0.03    0.56
  C11                  CONDUIT     0.139     0  08:17      1.55    0.01    0.09
  C12                  CONDUIT     0.066     0  07:45      1.09    0.01    0.07
  C13                  CONDUIT     0.348     0  06:39      1.52    0.02    0.54
  C14                  CONDUIT     0.271     0  07:02      2.08    0.02    0.09
  C15                  CONDUIT     0.179     0  06:35      2.35    0.57    0.48
  C16                  CONDUIT     0.170     0  06:37      1.27    0.02    0.09
  C17                  CONDUIT     0.300     0  06:37      2.09    0.01    0.09
  C18                  CONDUIT     0.308     0  06:26      3.17    0.01    0.54
  C19                  CONDUIT     0.027     0  07:38      0.60    0.01    0.16
  C2                   CONDUIT     0.023     0  07:47      0.84    0.03    0.15
  C20                  CONDUIT     0.380     0  05:51      3.22    0.01    0.10
  C21                  CONDUIT     0.112     0  06:00      1.66    0.64    0.46
  C22                  CONDUIT     0.111     0  06:01      1.24    0.05    0.24
  C23                  CONDUIT     0.571     0  06:02      1.35    0.06    0.59
  C3                   CONDUIT     0.083     0  08:39      1.54    0.03    0.12
  C4                   CONDUIT     0.179     0  05:51      3.10    0.04    0.57
  C5                   CONDUIT     0.060     0  06:26      1.34    1.03    0.89
  C6                   CONDUIT     0.057     0  06:29      1.26    0.91    0.62
  C7                   CONDUIT     0.133     0  06:27      1.57    0.03    0.56
  C8                   CONDUIT     0.050     0  06:22      1.21    0.63    0.52
  C9                   CONDUIT     0.049     0  06:27      0.97    0.17    0.31
  V1                   ORIFICE     0.271     0  07:01                      1.00
  V2                   ORIFICE     0.027     0  07:36                      0.24
  V3                   ORIFICE     0.083     0  08:38                      0.65
  V4                   ORIFICE     0.023     0  07:45                      0.35
  V5                   ORIFICE     0.033     0  07:14                      1.00
  V6                   ORIFICE     0.066     0  07:42                      0.43
  
  
  ***************************
  Flow Classification Summary
  ***************************
  
  -------------------------------------------------------------------------------------
                      Adjusted    ---------- Fraction of Time in Flow Class ---------- 
                       /Actual         Up    Down  Sub   Sup   Up    Down  Norm  Inlet 
  Conduit               Length    Dry  Dry   Dry   Crit  Crit  Crit  Crit  Ltd   Ctrl  
  -------------------------------------------------------------------------------------
  C1                      1.00   0.00  0.00  0.00  0.19  0.81  0.00  0.00  0.96  0.00
  C10                     1.00   0.00  0.00  0.00  0.97  0.03  0.00  0.00  0.98  0.00
  C11                     1.00   0.00  0.00  0.00  0.25  0.75  0.00  0.00  1.00  0.00
  C12                     1.00   0.00  0.00  0.00  0.59  0.41  0.00  0.00  0.84  0.00
  C13                     1.00   0.00  0.00  0.00  0.91  0.09  0.00  0.00  0.93  0.00
  C14                     1.00   0.01  0.00  0.00  0.01  0.99  0.00  0.00  0.55  0.00
  C15                     1.00   0.00  0.00  0.00  0.00  1.00  0.00  0.00  0.01  0.00
  C16                     1.00   0.00  0.00  0.00  0.51  0.49  0.00  0.00  0.39  0.00
  C17                     1.00   0.00  0.00  0.00  0.30  0.70  0.00  0.00  0.98  0.00
  C18                     1.00   0.00  0.00  0.00  0.96  0.04  0.00  0.00  0.98  0.00
  C19                     1.00   0.00  0.00  0.00  1.00  0.00  0.00  0.00  1.00  0.00
  C2                      1.00   0.00  0.00  0.00  0.49  0.51  0.00  0.00  0.98  0.00
  C20                     1.00   0.00  0.00  0.00  0.59  0.41  0.00  0.00  0.98  0.00
  C21                     1.00   0.00  0.00  0.00  0.00  1.00  0.00  0.00  0.00  0.00
  C22                     1.00   0.00  0.00  0.00  0.90  0.10  0.00  0.00  1.00  0.00
  C23                     1.00   0.00  0.00  0.00  0.93  0.07  0.00  0.00  0.96  0.00
  C3                      1.00   0.00  0.00  0.00  0.03  0.96  0.00  0.00  0.12  0.00
  C4                      1.00   0.00  0.00  0.00  0.97  0.03  0.00  0.00  0.99  0.00
  C5                      1.00   0.00  0.00  0.00  0.87  0.13  0.00  0.00  0.99  0.00
  C6                      1.00   0.00  0.00  0.00  0.01  0.99  0.00  0.00  0.00  0.00
  C7                      1.00   0.00  0.00  0.00  0.96  0.04  0.00  0.00  0.98  0.00
  C8                      1.00   0.00  0.00  0.00  0.06  0.94  0.00  0.00  0.00  0.00
  C9                      1.00   0.00  0.00  0.00  1.00  0.00  0.00  0.00  1.00  0.00
  
  
  *************************
  Conduit Surcharge Summary
  *************************
  
  ----------------------------------------------------------------------------
                                                           Hours        Hours 
                         --------- Hours Full --------   Above Full   Capacity
  Conduit                Both Ends  Upstream  Dnstream   Normal Flow   Limited
  ----------------------------------------------------------------------------
  C10                         0.01      0.01      4.02      0.01         0.01
  C13                         0.01      0.01      2.98      0.01         0.01
  C18                         0.01      0.01      3.71      0.01         0.01
  C23                         0.01      0.01      4.73      0.01         0.01
  C4                          0.01      0.01      6.96      0.01         0.01
  C5                          0.01      0.01      0.01      0.05         0.01
  C7                          0.01      0.01      6.28      0.01         0.01
  

  Analysis begun on:  Sun Jul 17 20:52:15 2022
  Analysis ended on:  Sun Jul 17 20:52:15 2022
  Total elapsed time: < 1 sec