
  EPA STORM WATER MANAGEMENT MODEL - VERSION 5.1 (Build 5.3.0.dev0)
  --------------------------------------------------------------

  
  *********************************************************
  NOTE: The summary statistics displayed in this report are
  based on results found at every computational time step,  
  not just on results from each reporting time step.
  *********************************************************
  
  ****************
  Analysis Options
  ****************
  Flow Units ............... CMS
  Process Models:
    Rainfall/Runoff ........ YES
    RDII ................... NO
    Snowmelt ............... NO
    Groundwater ............ NO
    Flow Routing ........... YES
    Ponding Allowed ........ NO
    Water Quality .......... NO
  Infiltration Method ...... HORTON
  Flow Routing Method ...... DYNWAVE
  Surcharge Method ......... EXTRAN
  Starting Date ............ 07/03/2008 18:35:00
  Ending Date .............. 07/03/2008 23:30:00
  Antecedent Dry Days ...... 0.0
  Report Time Step ......... 00:05:00
  Wet Time Step ............ 00:05:00
  Dry Time Step ............ 01:00:00
  Routing Time Step ........ 30.00 sec
  Variable Time Step ....... YES
  Maximum Trials ........... 8
  Number of Threads ........ 1
  Head Tolerance ........... 0.001500 m
  
  
  **************************        Volume         Depth
  Runoff Quantity Continuity     hectare-m            mm
  **************************     ---------       -------
  Total Precipitation ......         1.343         7.455
  Evaporation Loss .........         0.000         0.000
  Infiltration Loss ........         0.000         0.000
  Surface Runoff ...........         1.313         7.286
  Final Storage ............         0.035         0.195
  Continuity Error (%) .....        -0.354
  
  
  **************************        Volume        Volume
  Flow Routing Continuity        hectare-m      10^6 ltr
  **************************     ---------     ---------
  Dry Weather Inflow .......         0.112         1.120
  Wet Weather Inflow .......         1.313        13.132
  Groundwater Inflow .......         0.000         0.000
  RDII Inflow ..............         0.000         0.000
  External Inflow ..........         0.000         0.000
  External Outflow .........         0.337         3.370
  Flooding Loss ............         0.368         3.685
  Evaporation Loss .........         0.000         0.000
  Exfiltration Loss ........         0.000         0.000
  Initial Stored Volume ....         0.000         0.000
  Final Stored Volume ......         0.567         5.667
  Continuity Error (%) .....        10.742
  
  
  *************************
  Highest Continuity Errors
  *************************
  Node T2 (39.00%)
  Node T4 (31.13%)
  Node T5 (30.40%)
  Node T3 (23.31%)
  Node T6 (14.39%)
  
  
  ***************************
  Time-Step Critical Elements
  ***************************
  Link C15 (33.70%)
  Link C21 (13.72%)
  Link C8 (7.47%)
  
  
  ********************************
  Highest Flow Instability Indexes
  ********************************
  Link C21 (2)
  Link C20 (2)
  Link C13 (2)
  Link C12 (2)
  Link C15 (2)
  
  
  *************************
  Routing Time Step Summary
  *************************
  Minimum Time Step           :     0.15 sec
  Average Time Step           :    23.96 sec
  Maximum Time Step           :    30.00 sec
  Percent in Steady State     :     1.86
  Average Iterations per Step :     2.75
  Percent Not Converging      :     3.03
  
  
  ***************************
  Subcatchment Runoff Summary
  ***************************
  
  ------------------------------------------------------------------------------------------------------------------------------
                            Total      Total      Total      Total     Imperv       Perv      Total       Total     Peak  Runoff
                           Precip      Runon       Evap      Infil     Runoff     Runoff     Runoff      Runoff   Runoff   Coeff
  Subcatchment                 mm         mm         mm         mm         mm         mm         mm    10^6 ltr      CMS
  ------------------------------------------------------------------------------------------------------------------------------
  SC01                       6.44       0.00       0.00       0.00       6.33       0.00       6.33        2.09     0.57   0.983
  SC010                      6.44       0.00       0.00       0.00       6.27       0.00       6.27        0.74     0.18   0.974
  SC02                       4.28       0.00       0.00       0.00       4.19       0.00       4.19        0.95     0.62   0.978
  SC03                       5.47       0.00       0.00       0.00       5.41       0.00       5.41        0.97     0.26   0.988
  SC04                       4.28       0.00       0.00       0.00       4.01       0.00       4.01        0.28     0.11   0.936
  SC05                       6.44       0.00       0.00       0.00       6.32       0.00       6.32        0.99     0.26   0.981
  SC06                      14.09       0.00       0.00       0.00      13.74       0.00      13.74        4.47     0.94   0.975
  SC07                       4.28       0.00       0.00       0.00       4.01       0.00       4.01        0.19     0.08   0.936
  SC08                       5.47       0.00       0.00       0.00       5.33       0.00       5.33        1.49     0.35   0.974
  SC09                      14.09       0.00       0.00       0.00      13.94       0.00      13.94        0.96     0.29   0.989
  
  
  ******************
  Node Depth Summary
  ******************
  
  ---------------------------------------------------------------------------------
                                 Average  Maximum  Maximum  Time of Max    Reported
                                   Depth    Depth      HGL   Occurrence   Max Depth
  Node                 Type       Meters   Meters   Meters  days hr:min      Meters
  ---------------------------------------------------------------------------------
  CSO10                JUNCTION     0.16     0.76    30.76     0  01:35        0.58
  CSO7                 JUNCTION     0.14     1.20    35.20     0  01:34        1.20
  CSO8                 JUNCTION     0.17     0.77    32.77     0  00:55        0.45
  CSO9                 JUNCTION     0.72     2.00    42.00     0  00:13        2.00
  J1                   JUNCTION     0.08     0.17    34.17     0  01:35        0.17
  J10                  JUNCTION     0.11     0.23    29.23     0  00:57        0.23
  J11                  JUNCTION     0.12     0.25    31.25     0  00:56        0.24
  J12                  JUNCTION     0.16     0.28    26.28     0  01:00        0.28
  J13                  JUNCTION     0.06     0.21    29.21     0  01:35        0.21
  J14                  JUNCTION     0.11     0.16    20.16     0  01:40        0.16
  J15                  JUNCTION     0.17     0.32    15.32     0  01:40        0.32
  J16                  JUNCTION     0.08     0.19    30.19     0  01:35        0.18
  J17                  JUNCTION     0.05     0.10    20.10     0  01:40        0.10
  J18                  JUNCTION     0.07     0.15    29.15     0  01:37        0.15
  J19                  JUNCTION     0.13     0.17     8.17     0  01:59        0.17
  J2                   JUNCTION     0.06     0.08    25.08     0  02:52        0.08
  J3                   JUNCTION     0.10     0.13    18.13     0  01:36        0.13
  J4                   JUNCTION     0.13     0.95    33.95     0  01:36        0.74
  J5                   JUNCTION     0.06     0.14    32.14     0  01:38        0.14
  J6                   JUNCTION     0.04     0.06    25.06     0  01:35        0.06
  J7                   JUNCTION     0.13     0.23    39.23     0  01:14        0.23
  J8                   JUNCTION     0.18     0.34    36.34     0  00:21        0.33
  J9                   JUNCTION     0.11     0.17    29.17     0  03:04        0.17
  Out_to_WWTP          OUTFALL      0.13     0.17     6.17     0  03:08        0.17
  T1                   STORAGE      2.85     5.00    15.00     0  01:58        5.00
  T2                   STORAGE      1.23     2.20    23.20     0  03:02        2.20
  T3                   STORAGE      2.26     3.56    25.56     0  03:14        3.56
  T4                   STORAGE      1.27     2.43    29.43     0  03:47        2.43
  T5                   STORAGE      2.34     4.36    31.36     0  02:51        4.36
  T6                   STORAGE      4.46     5.00    36.00     0  00:41        5.00
  
  
  *******************
  Node Inflow Summary
  *******************
  
  -------------------------------------------------------------------------------------------------
                                  Maximum  Maximum                  Lateral       Total        Flow
                                  Lateral    Total  Time of Max      Inflow      Inflow     Balance
                                   Inflow   Inflow   Occurrence      Volume      Volume       Error
  Node                 Type           CMS      CMS  days hr:min    10^6 ltr    10^6 ltr     Percent
  -------------------------------------------------------------------------------------------------
  CSO10                JUNCTION     0.187    0.187     0  01:35       0.781       0.781       0.080
  CSO7                 JUNCTION     0.085    0.085     0  01:35       0.279        0.28       0.143
  CSO8                 JUNCTION     0.346    0.346     0  00:55        1.49        1.49      -0.010
  CSO9                 JUNCTION     0.294    0.294     0  00:20        1.02        1.02       0.015
  J1                   JUNCTION     0.276    0.276     0  01:35        1.16        1.16      -0.127
  J10                  JUNCTION     0.272    0.586     0  00:55        1.09        2.58      -0.076
  J11                  JUNCTION     0.000    0.343     0  00:55           0        1.49       0.227
  J12                  JUNCTION     0.000    0.742     0  00:57           0        4.06       0.189
  J13                  JUNCTION     0.626    0.626     0  01:35         1.1         1.1      -0.901
  J14                  JUNCTION     0.000    0.129     0  01:40           0        1.45       0.424
  J15                  JUNCTION     0.000    0.940     0  01:37           0        5.34       1.161
  J16                  JUNCTION     0.582    0.582     0  01:35        2.26        2.26      -0.044
  J17                  JUNCTION     0.000    0.065     0  01:40           0        0.26       0.965
  J18                  JUNCTION     0.000    0.186     0  01:35           0       0.781      -0.012
  J19                  JUNCTION     0.000    0.271     0  01:58           0        3.38       0.332
  J2                   JUNCTION     0.000    0.037     0  02:51           0       0.455       1.129
  J3                   JUNCTION     0.000    0.166     0  01:35           0        2.07       1.536
  J4                   JUNCTION     0.000    0.081     0  01:35           0       0.275       0.360
  J5                   JUNCTION     0.116    0.184     0  01:37       0.316        0.59      -0.095
  J6                   JUNCTION     0.000    0.023     0  01:35           0       0.171       1.161
  J7                   JUNCTION     0.000    0.127     0  01:14           0       0.836       0.210
  J8                   JUNCTION     0.964    1.083     0  00:20        4.76        5.59      -0.141
  J9                   JUNCTION     0.000    0.175     0  00:50           0        1.49       1.005
  Out_to_WWTP          OUTFALL      0.000    0.271     0  02:00           0        3.37       0.000
  T1                   STORAGE      0.000    0.915     0  01:40           0        5.28      12.915
  T2                   STORAGE      0.000    0.617     0  01:36           0        1.11      63.947
  T3                   STORAGE      0.000    0.720     0  01:00           0        4.05      30.392
  T4                   STORAGE      0.000    0.183     0  01:38           0       0.591      45.202
  T5                   STORAGE      0.000    0.273     0  01:36           0        1.16      43.675
  T6                   STORAGE      0.000    1.067     0  00:22           0         5.6      16.810
  
  
  **********************
  Node Surcharge Summary
  **********************
  
  Surcharging occurs when water rises above the top of the highest conduit.
  ---------------------------------------------------------------------
                                               Max. Height   Min. Depth
                                   Hours       Above Crown    Below Rim
  Node                 Type      Surcharged         Meters       Meters
  ---------------------------------------------------------------------
  CSO10                JUNCTION        0.20          0.316        0.244
  CSO7                 JUNCTION        0.29          0.945        0.000
  CSO8                 JUNCTION        0.05          0.319        1.228
  CSO9                 JUNCTION        1.40          1.682        0.000
  J4                   JUNCTION        0.26          0.655        1.045
  
  
  *********************
  Node Flooding Summary
  *********************
  
  Flooding refers to all water that overflows a node, whether it ponds or not.
  --------------------------------------------------------------------------
                                                             Total   Maximum
                                 Maximum   Time of Max       Flood    Ponded
                        Hours       Rate    Occurrence      Volume     Depth
  Node                 Flooded       CMS   days hr:min    10^6 ltr    Meters
  --------------------------------------------------------------------------
  CSO7                    0.15     0.014      0  01:37       0.004     0.000
  CSO9                    1.01     0.166      0  00:20       0.185     0.000
  T1                      0.92     0.493      0  02:07       0.782     0.000
  T6                      1.76     0.924      0  00:45       2.713     0.000
  
  
  **********************
  Storage Volume Summary
  **********************
  
  --------------------------------------------------------------------------------------------------
                         Average     Avg  Evap Exfil       Maximum     Max    Time of Max    Maximum
                          Volume    Pcnt  Pcnt  Pcnt        Volume    Pcnt     Occurrence    Outflow
  Storage Unit           1000 m3    Full  Loss  Loss       1000 m3    Full    days hr:min        CMS
  --------------------------------------------------------------------------------------------------
  T1                       0.398      57     0     0         0.700     100       0  01:58      0.271
  T2                       0.246      25     0     0         0.440      44       0  03:02      0.065
  T3                       1.175      45     0     0         1.850      71       0  03:14      0.129
  T4                       0.127      25     0     0         0.243      49       0  03:47      0.023
  T5                       0.234      47     0     0         0.436      87       0  02:51      0.037
  T6                       0.535      89     0     0         0.600     100       0  00:41      0.175
  
  
  ***********************
  Outfall Loading Summary
  ***********************
  
  -----------------------------------------------------------
                         Flow       Avg       Max       Total
                         Freq      Flow      Flow      Volume
  Outfall Node           Pcnt       CMS       CMS    10^6 ltr
  -----------------------------------------------------------
  Out_to_WWTP           98.51     0.177     0.271       3.370
  -----------------------------------------------------------
  System                98.51     0.177     0.271       3.370
  
  
  ********************
  Link Flow Summary
  ********************
  
  -----------------------------------------------------------------------------
                                 Maximum  Time of Max   Maximum    Max/    Max/
                                  |Flow|   Occurrence   |Veloc|    Full    Full
  Link                 Type          CMS  days hr:min     m/sec    Flow   Depth
  -----------------------------------------------------------------------------
  C1                   CONDUIT     0.037     0  02:53      1.00    0.01    0.10
  C10                  CONDUIT     1.067     0  00:22      2.54    0.11    0.61
  C11                  CONDUIT     0.162     0  01:36      1.65    0.01    0.11
  C12                  CONDUIT     0.175     0  02:00      1.51    0.01    0.11
  C13                  CONDUIT     0.720     0  01:00      2.41    0.04    0.56
  C14                  CONDUIT     0.271     0  02:00      2.08    0.02    0.09
  C15                  CONDUIT     0.343     0  00:55      2.66    1.09    0.77
  C16                  CONDUIT     0.329     0  00:57      1.56    0.03    0.12
  C17                  CONDUIT     0.575     0  00:57      2.51    0.03    0.13
  C18                  CONDUIT     0.617     0  01:36      4.72    0.02    0.52
  C19                  CONDUIT     0.056     0  01:40      0.55    0.02    0.21
  C2                   CONDUIT     0.021     0  01:35      0.96    0.02    0.16
  C20                  CONDUIT     0.576     0  01:36      3.71    0.02    0.13
  C21                  CONDUIT     0.186     0  01:35      1.76    1.06    0.68
  C22                  CONDUIT     0.181     0  01:37      1.52    0.08    0.30
  C23                  CONDUIT     0.915     0  01:40      1.21    0.10    0.61
  C3                   CONDUIT     0.128     0  01:40      1.90    0.05    0.14
  C4                   CONDUIT     0.273     0  01:36      4.05    0.07    0.59
  C5                   CONDUIT     0.081     0  01:35      1.59    1.39    1.00
  C6                   CONDUIT     0.071     0  01:38      1.29    1.12    0.74
  C7                   CONDUIT     0.183     0  01:38      1.38    0.04    0.57
  C8                   CONDUIT     0.127     0  01:14      1.95    1.60    0.86
  C9                   CONDUIT     0.127     0  01:14      1.26    0.43    0.56
  V1                   ORIFICE     0.271     0  01:58                      1.00
  V2                   ORIFICE     0.065     0  01:40                      1.00
  V3                   ORIFICE     0.129     0  01:40                      1.00
  V4                   ORIFICE     0.023     0  01:35                      1.00
  V5                   ORIFICE     0.037     0  02:51                      1.00
  V6                   ORIFICE     0.175     0  00:50                      1.00
  
  
  ***************************
  Flow Classification Summary
  ***************************
  
  -------------------------------------------------------------------------------------
                      Adjusted    ---------- Fraction of Time in Flow Class ---------- 
                       /Actual         Up    Down  Sub   Sup   Up    Down  Norm  Inlet 
  Conduit               Length    Dry  Dry   Dry   Crit  Crit  Crit  Crit  Ltd   Ctrl  
  -------------------------------------------------------------------------------------
  C1                      1.00   0.00  0.00  0.00  0.33  0.67  0.00  0.00  0.93  0.00
  C10                     1.00   0.00  0.00  0.00  0.94  0.06  0.00  0.00  0.95  0.00
  C11                     1.00   0.00  0.00  0.00  0.36  0.63  0.00  0.00  1.00  0.00
  C12                     1.00   0.00  0.00  0.00  0.46  0.53  0.00  0.00  0.73  0.00
  C13                     1.00   0.00  0.00  0.00  0.85  0.14  0.00  0.00  0.89  0.00
  C14                     1.00   0.01  0.00  0.00  0.01  0.98  0.00  0.00  0.25  0.00
  C15                     1.00   0.02  0.00  0.00  0.01  0.97  0.00  0.00  0.00  0.00
  C16                     1.00   0.00  0.02  0.00  0.33  0.65  0.00  0.00  0.07  0.00
  C17                     1.00   0.00  0.00  0.00  0.44  0.56  0.00  0.00  0.92  0.00
  C18                     1.00   0.00  0.00  0.00  0.62  0.38  0.00  0.00  0.95  0.00
  C19                     1.00   0.00  0.00  0.00  1.00  0.00  0.00  0.00  1.00  0.00
  C2                      1.00   0.00  0.00  0.00  0.79  0.21  0.00  0.00  0.94  0.00
  C20                     1.00   0.00  0.00  0.00  0.39  0.61  0.00  0.00  0.97  0.00
  C21                     1.00   0.00  0.00  0.00  0.03  0.97  0.00  0.00  0.00  0.00
  C22                     1.00   0.00  0.00  0.00  0.71  0.29  0.00  0.00  1.00  0.00
  C23                     1.00   0.00  0.00  0.00  0.80  0.20  0.00  0.00  0.91  0.00
  C3                      1.00   0.00  0.01  0.00  0.07  0.92  0.00  0.00  0.16  0.00
  C4                      1.00   0.00  0.00  0.00  0.93  0.07  0.00  0.00  0.97  0.00
  C5                      1.00   0.00  0.00  0.00  0.84  0.16  0.00  0.00  0.89  0.00
  C6                      1.00   0.00  0.00  0.00  0.10  0.89  0.00  0.00  0.01  0.00
  C7                      1.00   0.00  0.00  0.00  0.81  0.19  0.00  0.00  0.94  0.00
  C8                      1.00   0.00  0.00  0.00  0.50  0.50  0.00  0.00  0.00  0.00
  C9                      1.00   0.00  0.00  0.00  1.00  0.00  0.00  0.00  1.00  0.00
  
  
  *************************
  Conduit Surcharge Summary
  *************************
  
  ----------------------------------------------------------------------------
                                                           Hours        Hours 
                         --------- Hours Full --------   Above Full   Capacity
  Conduit                Both Ends  Upstream  Dnstream   Normal Flow   Limited
  ----------------------------------------------------------------------------
  C10                         0.01      0.01      4.53      0.01         0.01
  C13                         0.01      0.01      3.45      0.01         0.01
  C15                         0.01      0.05      0.01      0.11         0.01
  C18                         0.01      0.01      2.74      0.01         0.01
  C21                         0.01      0.20      0.01      0.12         0.01
  C23                         0.01      0.01      3.45      0.01         0.01
  C4                          0.01      0.01      3.45      0.01         0.01
  C5                          0.25      0.29      0.35      0.30         0.23
  C6                          0.01      0.26      0.01      0.17         0.01
  C7                          0.01      0.01      3.15      0.01         0.01
  C8                          0.01      1.40      0.01      1.40         0.01
  

  Analysis begun on:  Sun Jul 17 20:49:19 2022
  Analysis ended on:  Sun Jul 17 20:49:20 2022
  Total elapsed time: 00:00:01