
  EPA STORM WATER MANAGEMENT MODEL - VERSION 5.1 (Build 5.3.0.dev0)
  --------------------------------------------------------------

  
  *********************************************************
  NOTE: The summary statistics displayed in this report are
  based on results found at every computational time step,  
  not just on results from each reporting time step.
  *********************************************************
  
  ****************
  Analysis Options
  ****************
  Flow Units ............... CMS
  Process Models:
    Rainfall/Runoff ........ YES
    RDII ................... NO
    Snowmelt ............... NO
    Groundwater ............ NO
    Flow Routing ........... YES
    Ponding Allowed ........ NO
    Water Quality .......... NO
  Infiltration Method ...... HORTON
  Flow Routing Method ...... DYNWAVE
  Surcharge Method ......... EXTRAN
  Starting Date ............ 04/10/2007 02:10:00
  Ending Date .............. 04/10/2007 15:10:00
  Antecedent Dry Days ...... 0.0
  Report Time Step ......... 00:05:00
  Wet Time Step ............ 00:05:00
  Dry Time Step ............ 01:00:00
  Routing Time Step ........ 30.00 sec
  Variable Time Step ....... YES
  Maximum Trials ........... 8
  Number of Threads ........ 1
  Head Tolerance ........... 0.001500 m
  
  
  **************************        Volume         Depth
  Runoff Quantity Continuity     hectare-m            mm
  **************************     ---------       -------
  Total Precipitation ......         1.081         5.999
  Evaporation Loss .........         0.000         0.000
  Infiltration Loss ........         0.000         0.000
  Surface Runoff ...........         1.054         5.852
  Final Storage ............         0.027         0.153
  Continuity Error (%) .....        -0.084
  
  
  **************************        Volume        Volume
  Flow Routing Continuity        hectare-m      10^6 ltr
  **************************     ---------     ---------
  Dry Weather Inflow .......         0.507         5.067
  Wet Weather Inflow .......         1.054        10.541
  Groundwater Inflow .......         0.000         0.000
  RDII Inflow ..............         0.000         0.000
  External Inflow ..........         0.000         0.000
  External Outflow .........         0.839         8.394
  Flooding Loss ............         0.000         0.000
  Evaporation Loss .........         0.000         0.000
  Exfiltration Loss ........         0.000         0.000
  Initial Stored Volume ....         0.000         0.000
  Final Stored Volume ......         0.574         5.741
  Continuity Error (%) .....         9.433
  
  
  *************************
  Highest Continuity Errors
  *************************
  Node T2 (32.68%)
  Node T6 (17.91%)
  Node T5 (17.56%)
  Node T3 (15.12%)
  Node T4 (9.31%)
  
  
  ***************************
  Time-Step Critical Elements
  ***************************
  Link C15 (33.62%)
  
  
  ********************************
  Highest Flow Instability Indexes
  ********************************
  Link C11 (5)
  Link C23 (4)
  Link C3 (4)
  Link C19 (4)
  Link V3 (4)
  
  
  *************************
  Routing Time Step Summary
  *************************
  Minimum Time Step           :     0.17 sec
  Average Time Step           :    28.50 sec
  Maximum Time Step           :    30.00 sec
  Percent in Steady State     :     3.53
  Average Iterations per Step :     2.01
  Percent Not Converging      :     0.00
  
  
  ***************************
  Subcatchment Runoff Summary
  ***************************
  
  ------------------------------------------------------------------------------------------------------------------------------
                            Total      Total      Total      Total     Imperv       Perv      Total       Total     Peak  Runoff
                           Precip      Runon       Evap      Infil     Runoff     Runoff     Runoff      Runoff   Runoff   Coeff
  Subcatchment                 mm         mm         mm         mm         mm         mm         mm    10^6 ltr      CMS
  ------------------------------------------------------------------------------------------------------------------------------
  SC01                       6.04       0.00       0.00       0.00       5.95       0.00       5.95        1.96     0.12   0.985
  SC010                      6.04       0.00       0.00       0.00       5.92       0.00       5.92        0.70     0.04   0.980
  SC02                       6.03       0.00       0.00       0.00       5.93       0.00       5.93        1.35     0.09   0.983
  SC03                       5.51       0.00       0.00       0.00       5.43       0.00       5.43        0.98     0.06   0.986
  SC04                       6.03       0.00       0.00       0.00       5.81       0.00       5.81        0.40     0.02   0.964
  SC05                       6.04       0.00       0.00       0.00       5.94       0.00       5.94        0.93     0.06   0.984
  SC06                       6.48       0.00       0.00       0.00       6.20       0.00       6.20        2.02     0.09   0.957
  SC07                       6.03       0.00       0.00       0.00       5.82       0.00       5.82        0.28     0.02   0.964
  SC08                       5.51       0.00       0.00       0.00       5.36       0.00       5.36        1.50     0.09   0.973
  SC09                       6.48       0.00       0.00       0.00       6.31       0.00       6.31        0.44     0.03   0.973
  
  
  ******************
  Node Depth Summary
  ******************
  
  ---------------------------------------------------------------------------------
                                 Average  Maximum  Maximum  Time of Max    Reported
                                   Depth    Depth      HGL   Occurrence   Max Depth
  Node                 Type       Meters   Meters   Meters  days hr:min      Meters
  ---------------------------------------------------------------------------------
  CSO10                JUNCTION     0.10     0.16    30.16     0  01:25        0.16
  CSO7                 JUNCTION     0.08     0.12    34.12     0  07:10        0.12
  CSO8                 JUNCTION     0.11     0.18    32.18     0  08:15        0.18
  CSO9                 JUNCTION     0.09     0.13    40.13     0  01:25        0.13
  J1                   JUNCTION     0.06     0.09    34.09     0  06:56        0.09
  J10                  JUNCTION     0.08     0.13    29.13     0  08:17        0.13
  J11                  JUNCTION     0.09     0.14    31.14     0  08:17        0.14
  J12                  JUNCTION     0.12     0.17    26.17     0  08:40        0.17
  J13                  JUNCTION     0.06     0.09    29.09     0  07:10        0.09
  J14                  JUNCTION     0.11     0.18    20.18     0  10:27        0.18
  J15                  JUNCTION     0.15     0.21    15.21     0  07:45        0.21
  J16                  JUNCTION     0.06     0.09    30.09     0  01:25        0.09
  J17                  JUNCTION     0.05     0.12    20.12     0  07:45        0.12
  J18                  JUNCTION     0.05     0.07    29.07     0  01:27        0.07
  J19                  JUNCTION     0.14     0.16     8.16     0  08:36        0.16
  J2                   JUNCTION     0.06     0.07    25.07     0  10:32        0.07
  J3                   JUNCTION     0.10     0.14    18.14     0  10:30        0.14
  J4                   JUNCTION     0.10     0.14    33.14     0  07:15        0.14
  J5                   JUNCTION     0.06     0.08    32.08     0  07:14        0.08
  J6                   JUNCTION     0.06     0.10    25.10     0  08:53        0.10
  J7                   JUNCTION     0.07     0.10    39.10     0  07:27        0.10
  J8                   JUNCTION     0.10     0.13    36.13     0  07:26        0.13
  J9                   JUNCTION     0.09     0.14    29.14     0  08:57        0.14
  Out_to_WWTP          OUTFALL      0.14     0.16     6.16     0  08:36        0.16
  T1                   STORAGE      2.55     4.28    14.28     0  08:35        4.28
  T2                   STORAGE      1.73     3.22    24.22     0  13:00        3.22
  T3                   STORAGE      1.99     3.99    25.99     0  10:25        3.99
  T4                   STORAGE      0.98     1.85    28.85     0  08:45        1.85
  T5                   STORAGE      1.97     3.18    30.18     0  10:30        3.18
  T6                   STORAGE      1.75     3.73    34.73     0  13:00        3.73
  
  
  *******************
  Node Inflow Summary
  *******************
  
  -------------------------------------------------------------------------------------------------
                                  Maximum  Maximum                  Lateral       Total        Flow
                                  Lateral    Total  Time of Max      Inflow      Inflow     Balance
                                   Inflow   Inflow   Occurrence      Volume      Volume       Error
  Node                 Type           CMS      CMS  days hr:min    10^6 ltr    10^6 ltr     Percent
  -------------------------------------------------------------------------------------------------
  CSO10                JUNCTION     0.041    0.041     0  01:25       0.875       0.875      -0.046
  CSO7                 JUNCTION     0.025    0.025     0  07:10       0.651       0.651      -0.142
  CSO8                 JUNCTION     0.099    0.099     0  08:15        1.84        1.85       0.013
  CSO9                 JUNCTION     0.027    0.027     0  01:25       0.688       0.688      -0.058
  J1                   JUNCTION     0.066    0.066     0  06:55        1.65        1.65      -0.185
  J10                  JUNCTION     0.075    0.172     0  08:15        1.47        3.32       0.035
  J11                  JUNCTION     0.000    0.099     0  08:15           0        1.85       0.210
  J12                  JUNCTION     0.000    0.278     0  08:15           0        6.08       0.179
  J13                  JUNCTION     0.107    0.107     0  07:10        1.95        1.95      -0.278
  J14                  JUNCTION     0.000    0.169     0  10:25           0        3.31       2.060
  J15                  JUNCTION     0.000    0.374     0  07:39           0        9.52       0.691
  J16                  JUNCTION     0.123    0.123     0  01:25        2.68        2.68      -0.111
  J17                  JUNCTION     0.000    0.088     0  07:35           0       0.673       3.112
  J18                  JUNCTION     0.000    0.040     0  01:25           0       0.876       0.054
  J19                  JUNCTION     0.000    0.250     0  08:36           0         8.4       0.129
  J2                   JUNCTION     0.000    0.031     0  10:30           0        1.08       0.424
  J3                   JUNCTION     0.000    0.220     0  10:27           0        5.35       0.805
  J4                   JUNCTION     0.000    0.025     0  07:11           0       0.652       0.496
  J5                   JUNCTION     0.027    0.051     0  07:13       0.565        1.22       0.051
  J6                   JUNCTION     0.000    0.048     0  08:45           0       0.995      -4.073
  J7                   JUNCTION     0.000    0.027     0  01:25           0       0.689       0.437
  J8                   JUNCTION     0.119    0.145     0  07:25        3.23        3.92       0.015
  J9                   JUNCTION     0.000    0.134     0  08:45           0        2.77       0.237
  Out_to_WWTP          OUTFALL      0.000    0.250     0  08:36           0        8.39       0.000
  T1                   STORAGE      0.000    0.364     0  07:45           0        9.46       6.589
  T2                   STORAGE      0.000    0.106     0  07:11           0        1.96      48.553
  T3                   STORAGE      0.000    0.262     0  08:40           0        6.07      17.811
  T4                   STORAGE      0.000    0.051     0  07:15           0        1.21      10.262
  T5                   STORAGE      0.000    0.066     0  06:56           0        1.66      21.301
  T6                   STORAGE      0.000    0.145     0  07:26           0        3.92      21.817
  
  
  **********************
  Node Surcharge Summary
  **********************
  
  No nodes were surcharged.
  
  
  *********************
  Node Flooding Summary
  *********************
  
  No nodes were flooded.
  
  
  **********************
  Storage Volume Summary
  **********************
  
  --------------------------------------------------------------------------------------------------
                         Average     Avg  Evap Exfil       Maximum     Max    Time of Max    Maximum
                          Volume    Pcnt  Pcnt  Pcnt        Volume    Pcnt     Occurrence    Outflow
  Storage Unit           1000 m3    Full  Loss  Loss       1000 m3    Full    days hr:min        CMS
  --------------------------------------------------------------------------------------------------
  T1                       0.356      51     0     0         0.599      86       0  08:35      0.250
  T2                       0.346      35     0     0         0.645      64       0  13:00      0.088
  T3                       1.036      40     0     0         2.074      80       0  10:25      0.169
  T4                       0.098      20     0     0         0.185      37       0  08:45      0.048
  T5                       0.197      39     0     0         0.318      64       0  10:30      0.031
  T6                       0.210      35     0     0         0.447      75       0  13:00      0.134
  
  
  ***********************
  Outfall Loading Summary
  ***********************
  
  -----------------------------------------------------------
                         Flow       Avg       Max       Total
                         Freq      Flow      Flow      Volume
  Outfall Node           Pcnt       CMS       CMS    10^6 ltr
  -----------------------------------------------------------
  Out_to_WWTP           98.78     0.183     0.250       8.394
  -----------------------------------------------------------
  System                98.78     0.183     0.250       8.394
  
  
  ********************
  Link Flow Summary
  ********************
  
  -----------------------------------------------------------------------------
                                 Maximum  Time of Max   Maximum    Max/    Max/
                                  |Flow|   Occurrence   |Veloc|    Full    Full
  Link                 Type          CMS  days hr:min     m/sec    Flow   Depth
  -----------------------------------------------------------------------------
  C1                   CONDUIT     0.031     0  10:32      0.99    0.01    0.11
  C10                  CONDUIT     0.145     0  07:26      2.35    0.01    0.54
  C11                  CONDUIT     0.212     0  10:30      1.82    0.01    0.08
  C12                  CONDUIT     0.133     0  08:58      1.20    0.01    0.08
  C13                  CONDUIT     0.262     0  08:40      1.72    0.02    0.54
  C14                  CONDUIT     0.250     0  08:36      2.03    0.01    0.08
  C15                  CONDUIT     0.099     0  08:15      1.96    0.31    0.35
  C16                  CONDUIT     0.098     0  08:18      1.07    0.01    0.07
  C17                  CONDUIT     0.171     0  08:17      1.71    0.01    0.07
  C18                  CONDUIT     0.106     0  07:11      1.46    0.00    0.52
  C19                  CONDUIT     0.088     0  07:45      1.14    0.03    0.16
  C2                   CONDUIT     0.048     0  08:53      1.52    0.05    0.19
  C20                  CONDUIT     0.123     0  01:25      2.01    0.00    0.07
  C21                  CONDUIT     0.040     0  01:25      1.26    0.23    0.26
  C22                  CONDUIT     0.040     0  01:27      0.88    0.02    0.17
  C23                  CONDUIT     0.364     0  07:45      1.64    0.04    0.57
  C3                   CONDUIT     0.170     0  10:28      2.07    0.07    0.16
  C4                   CONDUIT     0.066     0  06:56      1.43    0.02    0.54
  C5                   CONDUIT     0.025     0  07:11      1.24    0.43    0.50
  C6                   CONDUIT     0.025     0  07:15      1.05    0.39    0.36
  C7                   CONDUIT     0.051     0  07:15      1.03    0.01    0.54
  C8                   CONDUIT     0.027     0  01:25      1.74    0.33    0.36
  C9                   CONDUIT     0.026     0  07:27      0.81    0.09    0.23
  V1                   ORIFICE     0.250     0  08:36                      1.00
  V2                   ORIFICE     0.088     0  07:35                      1.00
  V3                   ORIFICE     0.169     0  10:25                      1.00
  V4                   ORIFICE     0.048     0  08:45                      1.00
  V5                   ORIFICE     0.031     0  10:30                      1.00
  V6                   ORIFICE     0.134     0  08:45                      1.00
  
  
  ***************************
  Flow Classification Summary
  ***************************
  
  -------------------------------------------------------------------------------------
                      Adjusted    ---------- Fraction of Time in Flow Class ---------- 
                       /Actual         Up    Down  Sub   Sup   Up    Down  Norm  Inlet 
  Conduit               Length    Dry  Dry   Dry   Crit  Crit  Crit  Crit  Ltd   Ctrl  
  -------------------------------------------------------------------------------------
  C1                      1.00   0.00  0.00  0.00  0.60  0.40  0.00  0.00  0.93  0.00
  C10                     1.00   0.00  0.00  0.00  0.93  0.07  0.00  0.00  0.97  0.00
  C11                     1.00   0.00  0.00  0.00  0.16  0.84  0.00  0.00  1.00  0.00
  C12                     1.00   0.00  0.00  0.00  0.51  0.49  0.00  0.00  0.96  0.00
  C13                     1.00   0.00  0.00  0.00  0.91  0.09  0.00  0.00  0.92  0.00
  C14                     1.00   0.01  0.00  0.00  0.01  0.98  0.00  0.00  0.43  0.00
  C15                     1.00   0.02  0.00  0.00  0.01  0.97  0.00  0.00  0.00  0.00
  C16                     1.00   0.00  0.02  0.00  0.30  0.67  0.00  0.00  0.18  0.00
  C17                     1.00   0.00  0.00  0.00  0.16  0.84  0.00  0.00  0.98  0.00
  C18                     1.00   0.00  0.00  0.00  0.93  0.07  0.00  0.00  0.95  0.00
  C19                     1.00   0.00  0.00  0.00  0.98  0.02  0.00  0.00  1.00  0.00
  C2                      1.00   0.00  0.00  0.00  0.40  0.60  0.00  0.00  0.99  0.00
  C20                     1.00   0.00  0.00  0.00  0.57  0.43  0.00  0.00  0.99  0.00
  C21                     1.00   0.00  0.00  0.00  0.00  1.00  0.00  0.00  0.00  0.00
  C22                     1.00   0.00  0.00  0.00  0.96  0.03  0.00  0.00  1.00  0.00
  C23                     1.00   0.00  0.00  0.00  0.93  0.07  0.00  0.00  0.94  0.00
  C3                      1.00   0.00  0.00  0.00  0.05  0.94  0.00  0.00  0.38  0.00
  C4                      1.00   0.00  0.00  0.00  0.94  0.06  0.00  0.00  0.95  0.00
  C5                      1.00   0.00  0.00  0.00  0.87  0.13  0.00  0.00  0.98  0.00
  C6                      1.00   0.00  0.00  0.00  0.01  0.99  0.00  0.00  0.00  0.00
  C7                      1.00   0.00  0.00  0.00  0.93  0.07  0.00  0.00  0.95  0.00
  C8                      1.00   0.00  0.00  0.00  0.00  1.00  0.00  0.00  0.00  0.00
  C9                      1.00   0.00  0.00  0.00  1.00  0.00  0.00  0.00  1.00  0.00
  
  
  *************************
  Conduit Surcharge Summary
  *************************
  
  ----------------------------------------------------------------------------
                                                           Hours        Hours 
                         --------- Hours Full --------   Above Full   Capacity
  Conduit                Both Ends  Upstream  Dnstream   Normal Flow   Limited
  ----------------------------------------------------------------------------
  C10                         0.01      0.01      5.92      0.01         0.01
  C13                         0.01      0.01      5.52      0.01         0.01
  C18                         0.01      0.01      5.24      0.01         0.01
  C23                         0.01      0.01     10.75      0.01         0.01
  C4                          0.01      0.01     10.67      0.01         0.01
  C7                          0.01      0.01      5.82      0.01         0.01
  

  Analysis begun on:  Sun Jul 17 19:50:36 2022
  Analysis ended on:  Sun Jul 17 19:50:37 2022
  Total elapsed time: 00:00:01