
  EPA STORM WATER MANAGEMENT MODEL - VERSION 5.1 (Build 5.3.0.dev0)
  --------------------------------------------------------------

  
  *********************************************************
  NOTE: The summary statistics displayed in this report are
  based on results found at every computational time step,  
  not just on results from each reporting time step.
  *********************************************************
  
  ****************
  Analysis Options
  ****************
  Flow Units ............... CMS
  Process Models:
    Rainfall/Runoff ........ YES
    RDII ................... NO
    Snowmelt ............... NO
    Groundwater ............ NO
    Flow Routing ........... YES
    Ponding Allowed ........ NO
    Water Quality .......... NO
  Infiltration Method ...... HORTON
  Flow Routing Method ...... DYNWAVE
  Surcharge Method ......... EXTRAN
  Starting Date ............ 11/19/2007 15:35:00
  Ending Date .............. 11/20/2007 09:00:00
  Antecedent Dry Days ...... 0.0
  Report Time Step ......... 00:05:00
  Wet Time Step ............ 00:05:00
  Dry Time Step ............ 01:00:00
  Routing Time Step ........ 30.00 sec
  Variable Time Step ....... YES
  Maximum Trials ........... 8
  Number of Threads ........ 1
  Head Tolerance ........... 0.001500 m
  
  
  **************************        Volume         Depth
  Runoff Quantity Continuity     hectare-m            mm
  **************************     ---------       -------
  Total Precipitation ......         1.096         6.082
  Evaporation Loss .........         0.000         0.000
  Infiltration Loss ........         0.000         0.000
  Surface Runoff ...........         1.070         5.939
  Final Storage ............         0.027         0.148
  Continuity Error (%) .....        -0.098
  
  
  **************************        Volume        Volume
  Flow Routing Continuity        hectare-m      10^6 ltr
  **************************     ---------     ---------
  Dry Weather Inflow .......         0.416         4.163
  Wet Weather Inflow .......         1.070        10.700
  Groundwater Inflow .......         0.000         0.000
  RDII Inflow ..............         0.000         0.000
  External Inflow ..........         0.000         0.000
  External Outflow .........         0.993         9.925
  Flooding Loss ............         0.000         0.000
  Evaporation Loss .........         0.000         0.000
  Exfiltration Loss ........         0.000         0.000
  Initial Stored Volume ....         0.000         0.000
  Final Stored Volume ......         0.444         4.439
  Continuity Error (%) .....         3.359
  
  
  *************************
  Highest Continuity Errors
  *************************
  Node T2 (28.91%)
  Node T3 (17.97%)
  Node T5 (9.30%)
  Node T4 (9.23%)
  Node T6 (4.06%)
  
  
  ***************************
  Time-Step Critical Elements
  ***************************
  Link C15 (22.12%)
  
  
  ********************************
  Highest Flow Instability Indexes
  ********************************
  Link C23 (3)
  Link C3 (3)
  Link C11 (3)
  Link C20 (2)
  Link C15 (2)
  
  
  *************************
  Routing Time Step Summary
  *************************
  Minimum Time Step           :     0.10 sec
  Average Time Step           :    28.91 sec
  Maximum Time Step           :    30.00 sec
  Percent in Steady State     :     9.90
  Average Iterations per Step :     2.05
  Percent Not Converging      :     0.00
  
  
  ***************************
  Subcatchment Runoff Summary
  ***************************
  
  ------------------------------------------------------------------------------------------------------------------------------
                            Total      Total      Total      Total     Imperv       Perv      Total       Total     Peak  Runoff
                           Precip      Runon       Evap      Infil     Runoff     Runoff     Runoff      Runoff   Runoff   Coeff
  Subcatchment                 mm         mm         mm         mm         mm         mm         mm    10^6 ltr      CMS
  ------------------------------------------------------------------------------------------------------------------------------
  SC01                       6.45       0.00       0.00       0.00       6.34       0.00       6.34        2.09     0.13   0.983
  SC010                      6.45       0.00       0.00       0.00       6.30       0.00       6.30        0.74     0.04   0.977
  SC02                       5.72       0.00       0.00       0.00       5.61       0.00       5.61        1.28     0.09   0.981
  SC03                       6.35       0.00       0.00       0.00       6.27       0.00       6.27        1.13     0.09   0.988
  SC04                       5.72       0.00       0.00       0.00       5.52       0.00       5.52        0.38     0.02   0.965
  SC05                       6.45       0.00       0.00       0.00       6.33       0.00       6.33        0.99     0.06   0.981
  SC06                       5.52       0.00       0.00       0.00       5.30       0.00       5.30        1.73     0.07   0.960
  SC07                       5.72       0.00       0.00       0.00       5.52       0.00       5.52        0.26     0.01   0.965
  SC08                       6.35       0.00       0.00       0.00       6.21       0.00       6.21        1.74     0.11   0.978
  SC09                       5.52       0.00       0.00       0.00       5.37       0.00       5.37        0.37     0.02   0.973
  
  
  ******************
  Node Depth Summary
  ******************
  
  ---------------------------------------------------------------------------------
                                 Average  Maximum  Maximum  Time of Max    Reported
                                   Depth    Depth      HGL   Occurrence   Max Depth
  Node                 Type       Meters   Meters   Meters  days hr:min      Meters
  ---------------------------------------------------------------------------------
  CSO10                JUNCTION     0.09     0.16    30.16     0  07:05        0.16
  CSO7                 JUNCTION     0.07     0.10    34.10     0  04:01        0.10
  CSO8                 JUNCTION     0.09     0.19    32.19     0  03:50        0.19
  CSO9                 JUNCTION     0.07     0.12    40.12     0  04:00        0.12
  J1                   JUNCTION     0.05     0.09    34.09     0  03:02        0.09
  J10                  JUNCTION     0.07     0.14    29.14     0  03:54        0.14
  J11                  JUNCTION     0.08     0.15    31.15     0  03:54        0.14
  J12                  JUNCTION     0.11     0.17    26.17     0  03:57        0.17
  J13                  JUNCTION     0.05     0.09    29.09     0  03:10        0.09
  J14                  JUNCTION     0.10     0.18    20.18     0  15:27        0.17
  J15                  JUNCTION     0.14     0.21    15.21     0  07:05        0.21
  J16                  JUNCTION     0.05     0.09    30.09     0  07:02        0.09
  J17                  JUNCTION     0.05     0.12    20.12     0  09:30        0.12
  J18                  JUNCTION     0.04     0.08    29.08     0  07:06        0.08
  J19                  JUNCTION     0.13     0.16     8.16     0  08:01        0.16
  J2                   JUNCTION     0.06     0.07    25.07     0  09:25        0.07
  J3                   JUNCTION     0.10     0.14    18.14     0  09:31        0.14
  J4                   JUNCTION     0.08     0.12    33.12     0  04:06        0.12
  J5                   JUNCTION     0.05     0.07    32.07     0  04:05        0.07
  J6                   JUNCTION     0.05     0.09    25.09     0  09:30        0.09
  J7                   JUNCTION     0.06     0.09    39.09     0  04:04        0.09
  J8                   JUNCTION     0.08     0.11    36.11     0  04:03        0.11
  J9                   JUNCTION     0.09     0.12    29.12     0  10:39        0.12
  Out_to_WWTP          OUTFALL      0.13     0.16     6.16     0  08:01        0.16
  T1                   STORAGE      2.01     3.94    13.94     0  08:00        3.94
  T2                   STORAGE      1.41     2.20    23.20     0  17:25        2.20
  T3                   STORAGE      2.19     3.52    25.52     0  17:25        3.52
  T4                   STORAGE      1.01     1.59    28.59     0  09:25        1.59
  T5                   STORAGE      1.54     2.55    29.55     0  09:23        2.55
  T6                   STORAGE      0.67     1.51    32.51     0  10:20        1.51
  
  
  *******************
  Node Inflow Summary
  *******************
  
  -------------------------------------------------------------------------------------------------
                                  Maximum  Maximum                  Lateral       Total        Flow
                                  Lateral    Total  Time of Max      Inflow      Inflow     Balance
                                   Inflow   Inflow   Occurrence      Volume      Volume       Error
  Node                 Type           CMS      CMS  days hr:min    10^6 ltr    10^6 ltr     Percent
  -------------------------------------------------------------------------------------------------
  CSO10                JUNCTION     0.043    0.043     0  07:05       0.891       0.896      -0.036
  CSO7                 JUNCTION     0.020    0.020     0  04:00       0.576       0.577       0.060
  CSO8                 JUNCTION     0.113    0.113     0  03:50        1.94        1.94      -0.001
  CSO9                 JUNCTION     0.022    0.022     0  04:00       0.583       0.585       0.053
  J1                   JUNCTION     0.064    0.064     0  03:00        1.59         1.6      -0.077
  J10                  JUNCTION     0.096    0.196     0  03:51        1.55        3.49      -0.014
  J11                  JUNCTION     0.000    0.113     0  03:50           0        1.94       0.055
  J12                  JUNCTION     0.000    0.261     0  03:54           0        6.65      -0.329
  J13                  JUNCTION     0.099    0.099     0  03:10        1.78        1.79      -0.185
  J14                  JUNCTION     0.000    0.157     0  15:25           0        3.64      -0.242
  J15                  JUNCTION     0.000    0.414     0  07:00           0        10.3       0.156
  J16                  JUNCTION     0.132    0.132     0  07:00        2.69         2.7      -0.090
  J17                  JUNCTION     0.000    0.086     0  09:25           0       0.831      -0.403
  J18                  JUNCTION     0.000    0.043     0  07:05           0       0.896      -0.140
  J19                  JUNCTION     0.000    0.240     0  08:00           0        9.93       0.074
  J2                   JUNCTION     0.000    0.028     0  09:24           0         1.3       0.272
  J3                   JUNCTION     0.000    0.217     0  09:29           0        5.83      -0.677
  J4                   JUNCTION     0.000    0.020     0  04:01           0       0.577       0.481
  J5                   JUNCTION     0.021    0.040     0  04:05       0.519        1.09       0.062
  J6                   JUNCTION     0.000    0.045     0  09:25           0       0.878       0.268
  J7                   JUNCTION     0.000    0.022     0  04:01           0       0.584       0.410
  J8                   JUNCTION     0.095    0.115     0  04:00        2.74        3.33       0.060
  J9                   JUNCTION     0.000    0.096     0  10:20           0        3.16      -0.145
  Out_to_WWTP          OUTFALL      0.000    0.240     0  08:01           0        9.93       0.000
  T1                   STORAGE      0.000    0.382     0  07:05           0        10.3       1.596
  T2                   STORAGE      0.000    0.098     0  03:11           0        1.79      40.673
  T3                   STORAGE      0.000    0.258     0  03:57           0        6.68      21.914
  T4                   STORAGE      0.000    0.040     0  04:06           0        1.09      10.168
  T5                   STORAGE      0.000    0.063     0  03:02           0         1.6      10.253
  T6                   STORAGE      0.000    0.114     0  04:03           0        3.33       4.229
  
  
  **********************
  Node Surcharge Summary
  **********************
  
  No nodes were surcharged.
  
  
  *********************
  Node Flooding Summary
  *********************
  
  No nodes were flooded.
  
  
  **********************
  Storage Volume Summary
  **********************
  
  --------------------------------------------------------------------------------------------------
                         Average     Avg  Evap Exfil       Maximum     Max    Time of Max    Maximum
                          Volume    Pcnt  Pcnt  Pcnt        Volume    Pcnt     Occurrence    Outflow
  Storage Unit           1000 m3    Full  Loss  Loss       1000 m3    Full    days hr:min        CMS
  --------------------------------------------------------------------------------------------------
  T1                       0.281      40     0     0         0.551      79       0  08:00      0.240
  T2                       0.282      28     0     0         0.441      44       0  17:25      0.086
  T3                       1.138      44     0     0         1.832      70       0  17:25      0.157
  T4                       0.101      20     0     0         0.159      32       0  09:25      0.045
  T5                       0.154      31     0     0         0.255      51       0  09:23      0.028
  T6                       0.081      13     0     0         0.182      30       0  10:20      0.096
  
  
  ***********************
  Outfall Loading Summary
  ***********************
  
  -----------------------------------------------------------
                         Flow       Avg       Max       Total
                         Freq      Flow      Flow      Volume
  Outfall Node           Pcnt       CMS       CMS    10^6 ltr
  -----------------------------------------------------------
  Out_to_WWTP           99.49     0.159     0.240       9.925
  -----------------------------------------------------------
  System                99.49     0.159     0.240       9.925
  
  
  ********************
  Link Flow Summary
  ********************
  
  -----------------------------------------------------------------------------
                                 Maximum  Time of Max   Maximum    Max/    Max/
                                  |Flow|   Occurrence   |Veloc|    Full    Full
  Link                 Type          CMS  days hr:min     m/sec    Flow   Depth
  -----------------------------------------------------------------------------
  C1                   CONDUIT     0.028     0  09:26      0.94    0.01    0.10
  C10                  CONDUIT     0.114     0  04:03      1.62    0.01    0.53
  C11                  CONDUIT     0.202     0  09:32      1.97    0.01    0.09
  C12                  CONDUIT     0.092     0  10:40      1.19    0.01    0.07
  C13                  CONDUIT     0.258     0  03:57      1.52    0.02    0.54
  C14                  CONDUIT     0.240     0  08:01      2.01    0.01    0.08
  C15                  CONDUIT     0.113     0  03:50      2.05    0.36    0.37
  C16                  CONDUIT     0.109     0  03:54      1.11    0.01    0.07
  C17                  CONDUIT     0.194     0  03:54      1.83    0.01    0.08
  C18                  CONDUIT     0.098     0  03:11      3.92    0.00    0.51
  C19                  CONDUIT     0.083     0  09:30      1.21    0.03    0.16
  C2                   CONDUIT     0.044     0  09:30      1.41    0.05    0.19
  C20                  CONDUIT     0.131     0  07:02      3.28    0.00    0.08
  C21                  CONDUIT     0.043     0  07:05      1.29    0.25    0.27
  C22                  CONDUIT     0.043     0  07:06      0.81    0.02    0.18
  C23                  CONDUIT     0.382     0  07:05      1.21    0.04    0.57
  C3                   CONDUIT     0.159     0  15:28      2.19    0.06    0.15
  C4                   CONDUIT     0.063     0  03:02      3.48    0.02    0.54
  C5                   CONDUIT     0.020     0  04:01      1.20    0.34    0.44
  C6                   CONDUIT     0.019     0  04:07      0.99    0.31    0.32
  C7                   CONDUIT     0.040     0  04:06      1.41    0.01    0.53
  C8                   CONDUIT     0.022     0  04:01      0.97    0.28    0.33
  C9                   CONDUIT     0.021     0  04:04      0.73    0.07    0.21
  V1                   ORIFICE     0.240     0  08:00                      1.00
  V2                   ORIFICE     0.086     0  09:25                      1.00
  V3                   ORIFICE     0.157     0  15:25                      1.00
  V4                   ORIFICE     0.045     0  09:25                      1.00
  V5                   ORIFICE     0.028     0  09:24                      1.00
  V6                   ORIFICE     0.096     0  10:20                      1.00
  
  
  ***************************
  Flow Classification Summary
  ***************************
  
  -------------------------------------------------------------------------------------
                      Adjusted    ---------- Fraction of Time in Flow Class ---------- 
                       /Actual         Up    Down  Sub   Sup   Up    Down  Norm  Inlet 
  Conduit               Length    Dry  Dry   Dry   Crit  Crit  Crit  Crit  Ltd   Ctrl  
  -------------------------------------------------------------------------------------
  C1                      1.00   0.00  0.00  0.00  0.42  0.58  0.00  0.00  0.97  0.00
  C10                     1.00   0.00  0.00  0.00  0.97  0.03  0.00  0.00  0.99  0.00
  C11                     1.00   0.00  0.00  0.00  0.08  0.92  0.00  0.00  1.00  0.00
  C12                     1.00   0.00  0.00  0.00  0.41  0.59  0.00  0.00  0.83  0.00
  C13                     1.00   0.00  0.00  0.00  0.94  0.06  0.00  0.00  0.96  0.00
  C14                     1.00   0.00  0.00  0.00  0.00  0.99  0.00  0.00  0.63  0.00
  C15                     1.00   0.00  0.00  0.00  0.00  1.00  0.00  0.00  0.00  0.00
  C16                     1.00   0.00  0.00  0.00  0.42  0.58  0.00  0.00  0.20  0.00
  C17                     1.00   0.00  0.00  0.00  0.18  0.82  0.00  0.00  0.99  0.00
  C18                     1.00   0.00  0.00  0.00  0.98  0.02  0.00  0.00  0.99  0.00
  C19                     1.00   0.00  0.00  0.00  0.99  0.01  0.00  0.00  1.00  0.00
  C2                      1.00   0.00  0.00  0.00  0.59  0.41  0.00  0.00  0.99  0.00
  C20                     1.00   0.00  0.00  0.00  0.61  0.39  0.00  0.00  0.99  0.00
  C21                     1.00   0.00  0.00  0.00  0.00  1.00  0.00  0.00  0.00  0.00
  C22                     1.00   0.00  0.00  0.00  0.99  0.01  0.00  0.00  1.00  0.00
  C23                     1.00   0.00  0.00  0.00  0.94  0.06  0.00  0.00  0.98  0.00
  C3                      1.00   0.00  0.00  0.00  0.02  0.98  0.00  0.00  0.36  0.00
  C4                      1.00   0.00  0.00  0.00  0.98  0.02  0.00  0.00  0.99  0.00
  C5                      1.00   0.00  0.00  0.00  0.88  0.12  0.00  0.00  0.99  0.00
  C6                      1.00   0.00  0.00  0.00  0.00  0.99  0.00  0.00  0.00  0.00
  C7                      1.00   0.00  0.00  0.00  0.97  0.03  0.00  0.00  0.99  0.00
  C8                      1.00   0.00  0.00  0.00  0.02  0.98  0.00  0.00  0.00  0.00
  C9                      1.00   0.00  0.00  0.00  1.00  0.00  0.00  0.00  1.00  0.00
  
  
  *************************
  Conduit Surcharge Summary
  *************************
  
  ----------------------------------------------------------------------------
                                                           Hours        Hours 
                         --------- Hours Full --------   Above Full   Capacity
  Conduit                Both Ends  Upstream  Dnstream   Normal Flow   Limited
  ----------------------------------------------------------------------------
  C10                         0.01      0.01      0.11      0.01         0.01
  C13                         0.01      0.01     10.78      0.01         0.01
  C18                         0.01      0.01      3.14      0.01         0.01
  C23                         0.01      0.01      9.82      0.01         0.01
  C4                          0.01      0.01     13.95      0.01         0.01
  C7                          0.01      0.01     12.48      0.01         0.01
  

  Analysis begun on:  Sun Jul 17 20:23:17 2022
  Analysis ended on:  Sun Jul 17 20:23:20 2022
  Total elapsed time: 00:00:03