
  EPA STORM WATER MANAGEMENT MODEL - VERSION 5.1 (Build 5.3.0.dev0)
  --------------------------------------------------------------

  
  *********************************************************
  NOTE: The summary statistics displayed in this report are
  based on results found at every computational time step,  
  not just on results from each reporting time step.
  *********************************************************
  
  ****************
  Analysis Options
  ****************
  Flow Units ............... CMS
  Process Models:
    Rainfall/Runoff ........ YES
    RDII ................... NO
    Snowmelt ............... NO
    Groundwater ............ NO
    Flow Routing ........... YES
    Ponding Allowed ........ NO
    Water Quality .......... NO
  Infiltration Method ...... HORTON
  Flow Routing Method ...... DYNWAVE
  Surcharge Method ......... EXTRAN
  Starting Date ............ 12/10/2009 03:30:00
  Ending Date .............. 12/10/2009 20:30:00
  Antecedent Dry Days ...... 0.0
  Report Time Step ......... 00:05:00
  Wet Time Step ............ 00:05:00
  Dry Time Step ............ 01:00:00
  Routing Time Step ........ 30.00 sec
  Variable Time Step ....... YES
  Maximum Trials ........... 8
  Number of Threads ........ 1
  Head Tolerance ........... 0.001500 m
  
  
  **************************        Volume         Depth
  Runoff Quantity Continuity     hectare-m            mm
  **************************     ---------       -------
  Total Precipitation ......         1.422         7.891
  Evaporation Loss .........         0.000         0.000
  Infiltration Loss ........         0.000         0.000
  Surface Runoff ...........         1.401         7.777
  Final Storage ............         0.022         0.120
  Continuity Error (%) .....        -0.073
  
  
  **************************        Volume        Volume
  Flow Routing Continuity        hectare-m      10^6 ltr
  **************************     ---------     ---------
  Dry Weather Inflow .......         0.686         6.865
  Wet Weather Inflow .......         1.401        14.014
  Groundwater Inflow .......         0.000         0.000
  RDII Inflow ..............         0.000         0.000
  External Inflow ..........         0.000         0.000
  External Outflow .........         1.295        12.955
  Flooding Loss ............         0.139         1.385
  Evaporation Loss .........         0.000         0.000
  Exfiltration Loss ........         0.000         0.000
  Initial Stored Volume ....         0.000         0.000
  Final Stored Volume ......         0.537         5.368
  Continuity Error (%) .....         5.610
  
  
  *************************
  Highest Continuity Errors
  *************************
  Node T2 (30.45%)
  Node T4 (16.24%)
  Node T5 (12.82%)
  Node T3 (8.98%)
  Node T6 (8.25%)
  
  
  ***************************
  Time-Step Critical Elements
  ***************************
  Link C15 (29.70%)
  
  
  ********************************
  Highest Flow Instability Indexes
  ********************************
  Link C23 (4)
  Link C11 (4)
  Link C2 (4)
  Link C3 (4)
  Link V3 (3)
  
  
  *************************
  Routing Time Step Summary
  *************************
  Minimum Time Step           :     0.10 sec
  Average Time Step           :    28.45 sec
  Maximum Time Step           :    30.00 sec
  Percent in Steady State     :     5.34
  Average Iterations per Step :     2.05
  Percent Not Converging      :     0.00
  
  
  ***************************
  Subcatchment Runoff Summary
  ***************************
  
  ------------------------------------------------------------------------------------------------------------------------------
                            Total      Total      Total      Total     Imperv       Perv      Total       Total     Peak  Runoff
                           Precip      Runon       Evap      Infil     Runoff     Runoff     Runoff      Runoff   Runoff   Coeff
  Subcatchment                 mm         mm         mm         mm         mm         mm         mm    10^6 ltr      CMS
  ------------------------------------------------------------------------------------------------------------------------------
  SC01                      10.65       0.00       0.00       0.00      10.56       0.00      10.56        3.48     0.39   0.992
  SC010                     10.65       0.00       0.00       0.00      10.53       0.00      10.53        1.24     0.13   0.988
  SC02                       8.60       0.00       0.00       0.00       8.48       0.00       8.48        1.93     0.20   0.986
  SC03                       5.33       0.00       0.00       0.00       5.27       0.00       5.27        0.95     0.10   0.989
  SC04                       8.60       0.00       0.00       0.00       8.34       0.00       8.34        0.58     0.05   0.970
  SC05                      10.65       0.00       0.00       0.00      10.55       0.00      10.55        1.65     0.18   0.991
  SC06                       6.04       0.00       0.00       0.00       5.89       0.00       5.89        1.92     0.12   0.975
  SC07                       8.60       0.00       0.00       0.00       8.34       0.00       8.34        0.40     0.03   0.970
  SC08                       5.33       0.00       0.00       0.00       5.25       0.00       5.25        1.47     0.13   0.985
  SC09                       6.04       0.00       0.00       0.00       5.94       0.00       5.94        0.41     0.03   0.983
  
  
  ******************
  Node Depth Summary
  ******************
  
  ---------------------------------------------------------------------------------
                                 Average  Maximum  Maximum  Time of Max    Reported
                                   Depth    Depth      HGL   Occurrence   Max Depth
  Node                 Type       Meters   Meters   Meters  days hr:min      Meters
  ---------------------------------------------------------------------------------
  CSO10                JUNCTION     0.11     0.32    30.32     0  04:05        0.31
  CSO7                 JUNCTION     0.09     0.16    34.16     0  04:20        0.16
  CSO8                 JUNCTION     0.09     0.22    32.22     0  03:40        0.22
  CSO9                 JUNCTION     0.09     0.15    40.15     0  03:20        0.15
  J1                   JUNCTION     0.07     0.15    34.15     0  04:05        0.15
  J10                  JUNCTION     0.07     0.15    29.15     0  03:42        0.15
  J11                  JUNCTION     0.07     0.16    31.16     0  03:43        0.16
  J12                  JUNCTION     0.11     0.18    26.18     0  04:11        0.18
  J13                  JUNCTION     0.06     0.13    29.13     0  04:01        0.13
  J14                  JUNCTION     0.12     0.18    20.18     0  10:20        0.18
  J15                  JUNCTION     0.16     0.28    15.28     0  04:08        0.28
  J16                  JUNCTION     0.06     0.16    30.16     0  04:05        0.16
  J17                  JUNCTION     0.05     0.11    20.11     0  04:35        0.11
  J18                  JUNCTION     0.05     0.13    29.13     0  04:06        0.13
  J19                  JUNCTION     0.15     0.17     8.17     0  04:31        0.17
  J2                   JUNCTION     0.07     0.08    25.08     0  07:10        0.08
  J3                   JUNCTION     0.11     0.15    18.15     0  08:10        0.15
  J4                   JUNCTION     0.11     0.19    33.19     0  04:23        0.19
  J5                   JUNCTION     0.06     0.10    32.10     0  04:22        0.10
  J6                   JUNCTION     0.06     0.11    25.11     0  07:06        0.11
  J7                   JUNCTION     0.07     0.11    39.11     0  03:25        0.11
  J8                   JUNCTION     0.09     0.14    36.14     0  03:25        0.14
  J9                   JUNCTION     0.09     0.15    29.15     0  06:06        0.15
  Out_to_WWTP          OUTFALL      0.14     0.17     6.17     0  07:23        0.17
  T1                   STORAGE      3.59     5.00    15.00     0  04:30        5.00
  T2                   STORAGE      2.59     4.15    25.15     0  15:00        4.15
  T3                   STORAGE      2.45     3.86    25.86     0  07:35        3.86
  T4                   STORAGE      2.31     3.36    30.36     0  14:54        3.36
  T5                   STORAGE      3.35     5.00    32.00     0  05:57        5.00
  T6                   STORAGE      1.86     3.24    34.24     0  05:55        3.24
  
  
  *******************
  Node Inflow Summary
  *******************
  
  -------------------------------------------------------------------------------------------------
                                  Maximum  Maximum                  Lateral       Total        Flow
                                  Lateral    Total  Time of Max      Inflow      Inflow     Balance
                                   Inflow   Inflow   Occurrence      Volume      Volume       Error
  Node                 Type           CMS      CMS  days hr:min    10^6 ltr    10^6 ltr     Percent
  -------------------------------------------------------------------------------------------------
  CSO10                JUNCTION     0.134    0.134     0  04:05        1.48        1.48      -0.016
  CSO7                 JUNCTION     0.041    0.041     0  04:20       0.905       0.905      -0.129
  CSO8                 JUNCTION     0.142    0.142     0  03:40        1.92        1.92      -0.013
  CSO9                 JUNCTION     0.034    0.034     0  03:20       0.753       0.754      -0.107
  J1                   JUNCTION     0.198    0.198     0  04:05        2.63        2.63      -0.107
  J10                  JUNCTION     0.112    0.245     0  03:41        1.62        3.54      -0.067
  J11                  JUNCTION     0.000    0.142     0  03:40           0        1.92      -0.070
  J12                  JUNCTION     0.000    0.318     0  04:10           0         7.3      -0.411
  J13                  JUNCTION     0.214    0.214     0  04:00        2.75        2.75      -0.237
  J14                  JUNCTION     0.000    0.167     0  07:35           0        5.23       0.034
  J15                  JUNCTION     0.000    0.682     0  04:05           0        15.2       0.579
  J16                  JUNCTION     0.407    0.407     0  04:05        4.46        4.46      -0.067
  J17                  JUNCTION     0.000    0.081     0  04:35           0        1.13       0.509
  J18                  JUNCTION     0.000    0.134     0  04:05           0        1.48       0.037
  J19                  JUNCTION     0.000    0.271     0  04:30           0          13       0.080
  J2                   JUNCTION     0.000    0.039     0  05:58           0        1.83       0.271
  J3                   JUNCTION     0.000    0.230     0  09:03           0        8.17      -0.010
  J4                   JUNCTION     0.000    0.041     0  04:20           0       0.907       0.347
  J5                   JUNCTION     0.051    0.090     0  04:20       0.799         1.7       0.056
  J6                   JUNCTION     0.000    0.064     0  13:41           0        1.12       0.185
  J7                   JUNCTION     0.000    0.034     0  03:20           0       0.755       0.334
  J8                   JUNCTION     0.147    0.181     0  03:30        3.57        4.32      -0.049
  J9                   JUNCTION     0.000    0.141     0  05:55           0        3.76       0.115
  Out_to_WWTP          OUTFALL      0.000    0.271     0  04:32           0          13       0.000
  T1                   STORAGE      0.000    0.671     0  04:08           0        15.1       3.697
  T2                   STORAGE      0.000    0.212     0  04:01           0        2.76      43.789
  T3                   STORAGE      0.000    0.295     0  04:11           0        7.33       9.868
  T4                   STORAGE      0.000    0.090     0  04:22           0         1.7      19.385
  T5                   STORAGE      0.000    0.197     0  04:05           0        2.63      14.707
  T6                   STORAGE      0.000    0.180     0  03:25           0        4.32       8.987
  
  
  **********************
  Node Surcharge Summary
  **********************
  
  No nodes were surcharged.
  
  
  *********************
  Node Flooding Summary
  *********************
  
  Flooding refers to all water that overflows a node, whether it ponds or not.
  --------------------------------------------------------------------------
                                                             Total   Maximum
                                 Maximum   Time of Max       Flood    Ponded
                        Hours       Rate    Occurrence      Volume     Depth
  Node                 Flooded       CMS   days hr:min    10^6 ltr    Meters
  --------------------------------------------------------------------------
  T1                      2.71     0.349      0  04:36       1.253     0.000
  T5                      1.34     0.052      0  05:57       0.132     0.000
  
  
  **********************
  Storage Volume Summary
  **********************
  
  --------------------------------------------------------------------------------------------------
                         Average     Avg  Evap Exfil       Maximum     Max    Time of Max    Maximum
                          Volume    Pcnt  Pcnt  Pcnt        Volume    Pcnt     Occurrence    Outflow
  Storage Unit           1000 m3    Full  Loss  Loss       1000 m3    Full    days hr:min        CMS
  --------------------------------------------------------------------------------------------------
  T1                       0.503      72     0     0         0.700     100       0  04:30      0.271
  T2                       0.518      52     0     0         0.830      83       0  15:00      0.081
  T3                       1.273      49     0     0         2.009      77       0  07:35      0.167
  T4                       0.231      46     0     0         0.336      67       0  14:54      0.064
  T5                       0.335      67     0     0         0.500     100       0  05:57      0.039
  T6                       0.224      37     0     0         0.389      65       0  05:55      0.141
  
  
  ***********************
  Outfall Loading Summary
  ***********************
  
  -----------------------------------------------------------
                         Flow       Avg       Max       Total
                         Freq      Flow      Flow      Volume
  Outfall Node           Pcnt       CMS       CMS    10^6 ltr
  -----------------------------------------------------------
  Out_to_WWTP           99.21     0.213     0.271      12.955
  -----------------------------------------------------------
  System                99.21     0.213     0.271      12.955
  
  
  ********************
  Link Flow Summary
  ********************
  
  -----------------------------------------------------------------------------
                                 Maximum  Time of Max   Maximum    Max/    Max/
                                  |Flow|   Occurrence   |Veloc|    Full    Full
  Link                 Type          CMS  days hr:min     m/sec    Flow   Depth
  -----------------------------------------------------------------------------
  C1                   CONDUIT     0.039     0  06:36      1.11    0.01    0.11
  C10                  CONDUIT     0.180     0  03:25      2.18    0.02    0.55
  C11                  CONDUIT     0.226     0  08:11      1.90    0.01    0.10
  C12                  CONDUIT     0.139     0  06:06      1.40    0.01    0.08
  C13                  CONDUIT     0.295     0  04:11      1.37    0.02    0.54
  C14                  CONDUIT     0.271     0  04:32      2.08    0.02    0.09
  C15                  CONDUIT     0.142     0  03:40      2.19    0.45    0.42
  C16                  CONDUIT     0.138     0  03:43      1.19    0.01    0.08
  C17                  CONDUIT     0.242     0  03:43      2.01    0.01    0.08
  C18                  CONDUIT     0.212     0  04:01      1.40    0.01    0.52
  C19                  CONDUIT     0.080     0  04:35      0.90    0.03    0.19
  C2                   CONDUIT     0.063     0  07:06      1.66    0.07    0.20
  C20                  CONDUIT     0.405     0  04:05      2.77    0.01    0.11
  C21                  CONDUIT     0.134     0  04:05      1.72    0.77    0.51
  C22                  CONDUIT     0.133     0  04:06      1.31    0.06    0.26
  C23                  CONDUIT     0.671     0  04:08      0.98    0.07    0.59
  C3                   CONDUIT     0.168     0  07:38      2.15    0.06    0.16
  C4                   CONDUIT     0.197     0  04:05      6.63    0.05    0.57
  C5                   CONDUIT     0.041     0  04:20      1.50    0.70    0.67
  C6                   CONDUIT     0.040     0  04:24      1.18    0.64    0.49
  C7                   CONDUIT     0.090     0  04:22      0.93    0.02    0.55
  C8                   CONDUIT     0.034     0  03:20      1.39    0.43    0.42
  C9                   CONDUIT     0.034     0  03:25      0.85    0.12    0.26
  V1                   ORIFICE     0.271     0  04:30                      1.00
  V2                   ORIFICE     0.081     0  04:35                      1.00
  V3                   ORIFICE     0.167     0  07:35                      1.00
  V4                   ORIFICE     0.064     0  13:41                      1.00
  V5                   ORIFICE     0.039     0  05:58                      1.00
  V6                   ORIFICE     0.141     0  05:55                      1.00
  
  
  ***************************
  Flow Classification Summary
  ***************************
  
  -------------------------------------------------------------------------------------
                      Adjusted    ---------- Fraction of Time in Flow Class ---------- 
                       /Actual         Up    Down  Sub   Sup   Up    Down  Norm  Inlet 
  Conduit               Length    Dry  Dry   Dry   Crit  Crit  Crit  Crit  Ltd   Ctrl  
  -------------------------------------------------------------------------------------
  C1                      1.00   0.00  0.00  0.00  0.44  0.56  0.00  0.00  0.96  0.00
  C10                     1.00   0.00  0.00  0.00  0.97  0.03  0.00  0.00  0.98  0.00
  C11                     1.00   0.00  0.00  0.00  0.22  0.77  0.00  0.00  1.00  0.00
  C12                     1.00   0.00  0.00  0.00  0.33  0.67  0.00  0.00  0.83  0.00
  C13                     1.00   0.00  0.00  0.00  0.89  0.11  0.00  0.00  0.91  0.00
  C14                     1.00   0.00  0.00  0.00  0.01  0.99  0.00  0.00  0.56  0.00
  C15                     1.00   0.05  0.00  0.00  0.02  0.93  0.00  0.00  0.03  0.00
  C16                     1.00   0.00  0.06  0.00  0.58  0.37  0.00  0.00  0.42  0.00
  C17                     1.00   0.00  0.00  0.00  0.45  0.55  0.00  0.00  0.99  0.00
  C18                     1.00   0.00  0.00  0.00  0.90  0.10  0.00  0.00  0.97  0.00
  C19                     1.00   0.00  0.00  0.00  0.99  0.01  0.00  0.00  1.00  0.00
  C2                      1.00   0.00  0.00  0.00  0.56  0.44  0.00  0.00  0.99  0.00
  C20                     1.00   0.00  0.00  0.00  0.57  0.43  0.00  0.00  0.99  0.00
  C21                     1.00   0.00  0.00  0.00  0.00  1.00  0.00  0.00  0.00  0.00
  C22                     1.00   0.00  0.00  0.00  0.91  0.09  0.00  0.00  1.00  0.00
  C23                     1.00   0.00  0.00  0.00  0.90  0.10  0.00  0.00  0.95  0.00
  C3                      1.00   0.00  0.00  0.00  0.05  0.95  0.00  0.00  0.46  0.00
  C4                      1.00   0.00  0.00  0.00  0.95  0.05  0.00  0.00  0.98  0.00
  C5                      1.00   0.00  0.00  0.00  0.89  0.11  0.00  0.00  0.99  0.00
  C6                      1.00   0.00  0.00  0.00  0.01  0.99  0.00  0.00  0.00  0.00
  C7                      1.00   0.00  0.00  0.00  0.94  0.06  0.00  0.00  0.97  0.00
  C8                      1.00   0.00  0.00  0.00  0.00  1.00  0.00  0.00  0.00  0.00
  C9                      1.00   0.00  0.00  0.00  1.00  0.00  0.00  0.00  1.00  0.00
  
  
  *************************
  Conduit Surcharge Summary
  *************************
  
  ----------------------------------------------------------------------------
                                                           Hours        Hours 
                         --------- Hours Full --------   Above Full   Capacity
  Conduit                Both Ends  Upstream  Dnstream   Normal Flow   Limited
  ----------------------------------------------------------------------------
  C10                         0.01      0.01     10.77      0.01         0.01
  C13                         0.01      0.01     12.09      0.01         0.01
  C18                         0.01      0.01     12.09      0.01         0.01
  C23                         0.01      0.01     13.31      0.01         0.01
  C4                          0.01      0.01     13.28      0.01         0.01
  C7                          0.01      0.01     12.84      0.01         0.01
  

  Analysis begun on:  Sun Jul 17 21:56:48 2022
  Analysis ended on:  Sun Jul 17 21:56:49 2022
  Total elapsed time: 00:00:01