
  EPA STORM WATER MANAGEMENT MODEL - VERSION 5.1 (Build 5.3.0.dev0)
  --------------------------------------------------------------

  
  *********************************************************
  NOTE: The summary statistics displayed in this report are
  based on results found at every computational time step,  
  not just on results from each reporting time step.
  *********************************************************
  
  ****************
  Analysis Options
  ****************
  Flow Units ............... CMS
  Process Models:
    Rainfall/Runoff ........ YES
    RDII ................... NO
    Snowmelt ............... NO
    Groundwater ............ NO
    Flow Routing ........... YES
    Ponding Allowed ........ NO
    Water Quality .......... NO
  Infiltration Method ...... HORTON
  Flow Routing Method ...... DYNWAVE
  Surcharge Method ......... EXTRAN
  Starting Date ............ 10/05/2008 20:00:00
  Ending Date .............. 10/06/2008 03:35:00
  Antecedent Dry Days ...... 0.0
  Report Time Step ......... 00:05:00
  Wet Time Step ............ 00:05:00
  Dry Time Step ............ 01:00:00
  Routing Time Step ........ 30.00 sec
  Variable Time Step ....... YES
  Maximum Trials ........... 8
  Number of Threads ........ 1
  Head Tolerance ........... 0.001500 m
  
  
  **************************        Volume         Depth
  Runoff Quantity Continuity     hectare-m            mm
  **************************     ---------       -------
  Total Precipitation ......         1.997        11.083
  Evaporation Loss .........         0.000         0.000
  Infiltration Loss ........         0.000         0.000
  Surface Runoff ...........         2.001        11.103
  Final Storage ............         0.025         0.141
  Continuity Error (%) .....        -1.453
  
  
  **************************        Volume        Volume
  Flow Routing Continuity        hectare-m      10^6 ltr
  **************************     ---------     ---------
  Dry Weather Inflow .......         0.089         0.887
  Wet Weather Inflow .......         2.004        20.036
  Groundwater Inflow .......         0.000         0.000
  RDII Inflow ..............         0.000         0.000
  External Inflow ..........         0.000         0.000
  External Outflow .........         0.603         6.026
  Flooding Loss ............         0.890         8.903
  Evaporation Loss .........         0.000         0.000
  Exfiltration Loss ........         0.000         0.000
  Initial Stored Volume ....         0.000         0.000
  Final Stored Volume ......         0.512         5.117
  Continuity Error (%) .....         4.189
  
  
  *************************
  Highest Continuity Errors
  *************************
  Node T3 (17.52%)
  Node T2 (17.41%)
  Node T6 (14.32%)
  Node T4 (14.24%)
  Node T5 (8.55%)
  
  
  ***************************
  Time-Step Critical Elements
  ***************************
  Link C15 (13.03%)
  Link C21 (9.48%)
  Link C5 (1.58%)
  
  
  ********************************
  Highest Flow Instability Indexes
  ********************************
  Link C6 (2)
  Link C5 (1)
  Link C20 (1)
  Link C23 (1)
  Link C18 (1)
  
  
  *************************
  Routing Time Step Summary
  *************************
  Minimum Time Step           :     0.52 sec
  Average Time Step           :    26.93 sec
  Maximum Time Step           :    30.00 sec
  Percent in Steady State     :     0.77
  Average Iterations per Step :     2.66
  Percent Not Converging      :     3.78
  
  
  ***************************
  Subcatchment Runoff Summary
  ***************************
  
  ------------------------------------------------------------------------------------------------------------------------------
                            Total      Total      Total      Total     Imperv       Perv      Total       Total     Peak  Runoff
                           Precip      Runon       Evap      Infil     Runoff     Runoff     Runoff      Runoff   Runoff   Coeff
  Subcatchment                 mm         mm         mm         mm         mm         mm         mm    10^6 ltr      CMS
  ------------------------------------------------------------------------------------------------------------------------------
  SC01                      14.26       0.00       0.00       0.00      14.40       0.00      14.40        4.75     4.34   1.010
  SC010                     14.26       0.00       0.00       0.00      14.33       0.00      14.33        1.68     1.37   1.005
  SC02                      17.87       0.00       0.00       0.00      18.11       0.00      18.11        4.12     3.61   1.013
  SC03                       4.86       0.00       0.00       0.00       4.88       0.00       4.88        0.88     0.97   1.005
  SC04                      17.87       0.00       0.00       0.00      17.87       0.00      17.87        1.23     0.80   1.000
  SC05                      14.26       0.00       0.00       0.00      14.38       0.00      14.38        2.24     1.99   1.009
  SC06                       7.56       0.00       0.00       0.00       7.34       0.00       7.34        2.39     1.14   0.971
  SC07                      17.87       0.00       0.00       0.00      17.87       0.00      17.87        0.85     0.55   1.000
  SC08                       4.86       0.00       0.00       0.00       4.79       0.00       4.79        1.34     0.93   0.986
  SC09                       7.56       0.00       0.00       0.00       7.46       0.00       7.46        0.51     0.34   0.987
  
  
  ******************
  Node Depth Summary
  ******************
  
  ---------------------------------------------------------------------------------
                                 Average  Maximum  Maximum  Time of Max    Reported
                                   Depth    Depth      HGL   Occurrence   Max Depth
  Node                 Type       Meters   Meters   Meters  days hr:min      Meters
  ---------------------------------------------------------------------------------
  CSO10                JUNCTION     0.19     1.00    31.00     0  00:41        1.00
  CSO7                 JUNCTION     0.27     1.20    35.20     0  00:28        1.20
  CSO8                 JUNCTION     0.22     2.00    34.00     0  00:21        2.00
  CSO9                 JUNCTION     0.26     2.00    42.00     0  00:27        2.00
  J1                   JUNCTION     0.08     0.59    34.59     0  00:51        0.54
  J10                  JUNCTION     0.08     0.35    29.35     0  00:26        0.34
  J11                  JUNCTION     0.08     0.29    31.29     0  00:35        0.29
  J12                  JUNCTION     0.13     0.38    26.38     0  00:28        0.37
  J13                  JUNCTION     0.08     0.49    29.49     0  00:40        0.47
  J14                  JUNCTION     0.11     0.12    20.12     0  05:30        0.12
  J15                  JUNCTION     0.20     0.87    15.87     0  00:53        0.85
  J16                  JUNCTION     0.08     0.50    30.50     0  00:50        0.49
  J17                  JUNCTION     0.07     0.08    20.08     0  01:49        0.08
  J18                  JUNCTION     0.06     0.16    29.16     0  01:09        0.16
  J19                  JUNCTION     0.15     0.17     8.17     0  00:50        0.17
  J2                   JUNCTION     0.07     0.08    25.08     0  01:37        0.08
  J3                   JUNCTION     0.11     0.12    18.12     0  02:18        0.12
  J4                   JUNCTION     0.18     0.95    33.95     0  00:28        0.75
  J5                   JUNCTION     0.07     0.31    32.31     0  00:45        0.31
  J6                   JUNCTION     0.07     0.07    25.07     0  01:50        0.07
  J7                   JUNCTION     0.07     0.23    39.23     0  00:48        0.23
  J8                   JUNCTION     0.10     0.36    36.36     0  00:36        0.35
  J9                   JUNCTION     0.10     0.11    29.11     0  02:35        0.11
  Out_to_WWTP          OUTFALL      0.15     0.17     6.17     0  02:05        0.17
  T1                   STORAGE      3.48     5.00    15.00     0  00:49        5.00
  T2                   STORAGE      4.23     5.00    26.00     0  00:44        5.00
  T3                   STORAGE      1.89     2.28    24.28     0  05:15        2.28
  T4                   STORAGE      3.95     5.00    32.00     0  00:54        5.00
  T5                   STORAGE      3.45     5.00    32.00     0  00:50        5.00
  T6                   STORAGE      3.59     5.00    36.00     0  00:56        5.00
  
  
  *******************
  Node Inflow Summary
  *******************
  
  -------------------------------------------------------------------------------------------------
                                  Maximum  Maximum                  Lateral       Total        Flow
                                  Lateral    Total  Time of Max      Inflow      Inflow     Balance
                                   Inflow   Inflow   Occurrence      Volume      Volume       Error
  Node                 Type           CMS      CMS  days hr:min    10^6 ltr    10^6 ltr     Percent
  -------------------------------------------------------------------------------------------------
  CSO10                JUNCTION     1.375    1.375     0  00:50        1.72        1.72      -0.057
  CSO7                 JUNCTION     0.555    0.555     0  00:45       0.922       0.922      -0.079
  CSO8                 JUNCTION     0.928    0.928     0  00:25        1.34        1.34      -0.037
  CSO9                 JUNCTION     0.346    0.346     0  00:35       0.564       0.564      -0.026
  J1                   JUNCTION     2.004    2.004     0  00:50        2.38        2.38      -0.248
  J10                  JUNCTION     0.981    1.418     0  00:25       0.969        2.13      -0.152
  J11                  JUNCTION     0.000    0.486     0  00:34           0        1.17       0.340
  J12                  JUNCTION     0.000    1.375     0  00:26           0        3.84      -0.088
  J13                  JUNCTION     3.626    3.626     0  00:40        4.25        4.25      -0.271
  J14                  JUNCTION     0.000    0.083     0  05:15           0        2.06       0.261
  J15                  JUNCTION     0.000    4.648     0  00:50           0        10.2       0.667
  J16                  JUNCTION     4.352    4.352     0  00:50        4.89        4.89      -0.303
  J17                  JUNCTION     0.000    0.033     0  00:44           0       0.828       0.853
  J18                  JUNCTION     0.000    0.202     0  01:09           0       0.892      -0.165
  J19                  JUNCTION     0.000    0.271     0  00:49           0        6.04       0.163
  J2                   JUNCTION     0.000    0.039     0  00:51           0       0.877       0.454
  J3                   JUNCTION     0.000    0.148     0  02:16           0        3.59       0.903
  J4                   JUNCTION     0.000    0.076     0  00:39           0       0.463       0.149
  J5                   JUNCTION     0.799    0.872     0  00:45        1.27        1.73      -0.125
  J6                   JUNCTION     0.000    0.028     0  00:54           0       0.674       0.535
  J7                   JUNCTION     0.000    0.127     0  00:48           0       0.435       0.275
  J8                   JUNCTION     1.163    1.286     0  00:35        2.62        3.06      -0.210
  J9                   JUNCTION     0.000    0.075     0  00:56           0        1.72       1.007
  Out_to_WWTP          OUTFALL      0.000    0.271     0  00:51           0        6.03       0.000
  T1                   STORAGE      0.000    3.655     0  00:53           0        10.1       4.061
  T2                   STORAGE      0.000    3.596     0  00:40           0        4.26      21.086
  T3                   STORAGE      0.000    1.336     0  00:28           0        3.84      21.246
  T4                   STORAGE      0.000    0.867     0  00:45           0        1.73      16.603
  T5                   STORAGE      0.000    1.915     0  00:51           0        2.39       9.351
  T6                   STORAGE      0.000    1.248     0  00:36           0        3.06      16.715
  
  
  **********************
  Node Surcharge Summary
  **********************
  
  Surcharging occurs when water rises above the top of the highest conduit.
  ---------------------------------------------------------------------
                                               Max. Height   Min. Depth
                                   Hours       Above Crown    Below Rim
  Node                 Type      Surcharged         Meters       Meters
  ---------------------------------------------------------------------
  CSO10                JUNCTION        0.53          0.560        0.000
  CSO7                 JUNCTION        0.93          0.945        0.000
  CSO8                 JUNCTION        0.33          1.547        0.000
  CSO9                 JUNCTION        0.50          1.682        0.000
  J4                   JUNCTION        0.87          0.650        1.050
  
  
  *********************
  Node Flooding Summary
  *********************
  
  Flooding refers to all water that overflows a node, whether it ponds or not.
  --------------------------------------------------------------------------
                                                             Total   Maximum
                                 Maximum   Time of Max       Flood    Ponded
                        Hours       Rate    Occurrence      Volume     Depth
  Node                 Flooded       CMS   days hr:min    10^6 ltr    Meters
  --------------------------------------------------------------------------
  CSO10                   0.47     1.158      0  00:50       0.827     0.000
  CSO7                    0.75     0.482      0  00:45       0.458     0.000
  CSO8                    0.21     0.445      0  00:25       0.172     0.000
  CSO9                    0.36     0.217      0  00:35       0.129     0.000
  T1                      1.08     3.382      0  00:54       3.323     0.000
  T2                      1.48     3.295      0  00:44       1.848     0.000
  T4                      1.29     0.434      0  00:54       0.462     0.000
  T5                      0.92     1.874      0  00:51       1.071     0.000
  T6                      1.19     0.494      0  00:56       0.607     0.000
  
  
  **********************
  Storage Volume Summary
  **********************
  
  --------------------------------------------------------------------------------------------------
                         Average     Avg  Evap Exfil       Maximum     Max    Time of Max    Maximum
                          Volume    Pcnt  Pcnt  Pcnt        Volume    Pcnt     Occurrence    Outflow
  Storage Unit           1000 m3    Full  Loss  Loss       1000 m3    Full    days hr:min        CMS
  --------------------------------------------------------------------------------------------------
  T1                       0.487      70     0     0         0.700     100       0  00:49      0.271
  T2                       0.847      85     0     0         1.000     100       0  00:44      0.033
  T3                       0.984      38     0     0         1.187      46       0  05:15      0.083
  T4                       0.395      79     0     0         0.500     100       0  00:54      0.028
  T5                       0.345      69     0     0         0.500     100       0  00:50      0.039
  T6                       0.431      72     0     0         0.600     100       0  00:56      0.075
  
  
  ***********************
  Outfall Loading Summary
  ***********************
  
  -----------------------------------------------------------
                         Flow       Avg       Max       Total
                         Freq      Flow      Flow      Volume
  Outfall Node           Pcnt       CMS       CMS    10^6 ltr
  -----------------------------------------------------------
  Out_to_WWTP           98.91     0.219     0.271       6.026
  -----------------------------------------------------------
  System                98.91     0.219     0.271       6.026
  
  
  ********************
  Link Flow Summary
  ********************
  
  -----------------------------------------------------------------------------
                                 Maximum  Time of Max   Maximum    Max/    Max/
                                  |Flow|   Occurrence   |Veloc|    Full    Full
  Link                 Type          CMS  days hr:min     m/sec    Flow   Depth
  -----------------------------------------------------------------------------
  C1                   CONDUIT     0.039     0  01:37      1.20    0.01    0.10
  C10                  CONDUIT     1.248     0  00:36      1.70    0.13    0.62
  C11                  CONDUIT     0.148     0  02:18      1.57    0.01    0.25
  C12                  CONDUIT     0.075     0  02:06      1.14    0.01    0.11
  C13                  CONDUIT     1.336     0  00:28      3.39    0.08    0.53
  C14                  CONDUIT     0.271     0  00:51      2.08    0.02    0.09
  C15                  CONDUIT     0.486     0  00:34      3.63    1.54    0.83
  C16                  CONDUIT     0.485     0  00:32      1.77    0.05    0.16
  C17                  CONDUIT     1.364     0  00:26      3.64    0.07    0.18
  C18                  CONDUIT     3.596     0  00:40      5.94    0.13    0.62
  C19                  CONDUIT     0.033     0  01:49      0.68    0.01    0.47
  C2                   CONDUIT     0.028     0  01:38      0.97    0.03    0.16
  C20                  CONDUIT     4.296     0  00:50      5.32    0.13    0.33
  C21                  CONDUIT     0.202     0  01:09      1.85    1.16    0.69
  C22                  CONDUIT     0.202     0  01:09      1.58    0.09    0.60
  C23                  CONDUIT     3.655     0  00:53      2.71    0.40    0.79
  C3                   CONDUIT     0.083     0  05:16      1.54    0.03    0.12
  C4                   CONDUIT     1.915     0  00:51      4.82    0.46    0.80
  C5                   CONDUIT     0.076     0  00:39      1.49    1.30    1.00
  C6                   CONDUIT     0.076     0  00:39      1.29    1.21    1.00
  C7                   CONDUIT     0.867     0  00:45      2.01    0.21    0.66
  C8                   CONDUIT     0.127     0  00:48      1.90    1.60    0.86
  C9                   CONDUIT     0.127     0  00:49      1.26    0.43    0.59
  V1                   ORIFICE     0.271     0  00:49                      1.00
  V2                   ORIFICE     0.033     0  00:44                      0.24
  V3                   ORIFICE     0.083     0  05:15                      0.65
  V4                   ORIFICE     0.028     0  00:54                      0.35
  V5                   ORIFICE     0.039     0  00:51                      1.00
  V6                   ORIFICE     0.075     0  00:56                      0.43
  
  
  ***************************
  Flow Classification Summary
  ***************************
  
  -------------------------------------------------------------------------------------
                      Adjusted    ---------- Fraction of Time in Flow Class ---------- 
                       /Actual         Up    Down  Sub   Sup   Up    Down  Norm  Inlet 
  Conduit               Length    Dry  Dry   Dry   Crit  Crit  Crit  Crit  Ltd   Ctrl  
  -------------------------------------------------------------------------------------
  C1                      1.00   0.00  0.00  0.00  0.06  0.93  0.00  0.00  0.95  0.00
  C10                     1.00   0.00  0.00  0.00  0.91  0.09  0.00  0.00  0.97  0.00
  C11                     1.00   0.00  0.00  0.00  0.27  0.73  0.00  0.00  1.00  0.00
  C12                     1.00   0.00  0.00  0.00  0.26  0.74  0.00  0.00  0.43  0.00
  C13                     1.00   0.00  0.00  0.00  0.91  0.09  0.00  0.00  0.94  0.00
  C14                     1.00   0.01  0.00  0.00  0.01  0.99  0.00  0.00  0.48  0.00
  C15                     1.00   0.01  0.00  0.00  0.00  0.99  0.00  0.00  0.00  0.00
  C16                     1.00   0.00  0.01  0.00  0.56  0.42  0.00  0.00  0.15  0.00
  C17                     1.00   0.00  0.00  0.00  0.69  0.31  0.00  0.00  0.94  0.00
  C18                     1.00   0.00  0.00  0.00  0.94  0.06  0.00  0.00  0.96  0.00
  C19                     1.00   0.00  0.00  0.00  1.00  0.00  0.00  0.00  1.00  0.00
  C2                      1.00   0.00  0.00  0.00  0.06  0.94  0.00  0.00  0.99  0.00
  C20                     1.00   0.00  0.00  0.00  0.71  0.29  0.00  0.00  0.97  0.00
  C21                     1.00   0.00  0.00  0.00  0.01  0.99  0.00  0.00  0.00  0.00
  C22                     1.00   0.00  0.00  0.00  0.81  0.19  0.00  0.00  1.00  0.00
  C23                     1.00   0.00  0.00  0.00  0.95  0.05  0.00  0.00  0.93  0.00
  C3                      1.00   0.00  0.01  0.00  0.04  0.95  0.00  0.00  0.30  0.00
  C4                      1.00   0.00  0.00  0.00  0.95  0.05  0.00  0.00  0.96  0.00
  C5                      1.00   0.00  0.00  0.00  0.89  0.11  0.00  0.00  0.84  0.00
  C6                      1.00   0.00  0.00  0.00  0.23  0.76  0.00  0.00  0.00  0.00
  C7                      1.00   0.00  0.00  0.00  0.93  0.07  0.00  0.00  0.96  0.00
  C8                      1.00   0.00  0.00  0.00  0.35  0.65  0.00  0.00  0.00  0.00
  C9                      1.00   0.00  0.00  0.00  1.00  0.00  0.00  0.00  1.00  0.00
  
  
  *************************
  Conduit Surcharge Summary
  *************************
  
  ----------------------------------------------------------------------------
                                                           Hours        Hours 
                         --------- Hours Full --------   Above Full   Capacity
  Conduit                Both Ends  Upstream  Dnstream   Normal Flow   Limited
  ----------------------------------------------------------------------------
  C10                         0.01      0.01      6.98      0.01         0.01
  C13                         0.01      0.01      6.18      0.01         0.01
  C15                         0.01      0.33      0.01      0.35         0.01
  C18                         0.01      0.01      6.94      0.01         0.01
  C21                         0.01      0.52      0.01      0.51         0.01
  C22                         0.01      0.01      0.08      0.01         0.01
  C23                         0.01      0.01      7.06      0.01         0.01
  C4                          0.01      0.01      7.12      0.01         0.01
  C5                          0.89      0.93      0.98      0.95         0.87
  C6                          0.09      0.87      0.09      0.80         0.09
  C7                          0.01      0.01      6.95      0.01         0.01
  C8                          0.01      0.50      0.01      0.52         0.01
  

  Analysis begun on:  Sun Jul 17 21:07:07 2022
  Analysis ended on:  Sun Jul 17 21:07:08 2022
  Total elapsed time: 00:00:01