
  EPA STORM WATER MANAGEMENT MODEL - VERSION 5.1 (Build 5.3.0.dev0)
  --------------------------------------------------------------

  
  *********************************************************
  NOTE: The summary statistics displayed in this report are
  based on results found at every computational time step,  
  not just on results from each reporting time step.
  *********************************************************
  
  ****************
  Analysis Options
  ****************
  Flow Units ............... CMS
  Process Models:
    Rainfall/Runoff ........ YES
    RDII ................... NO
    Snowmelt ............... NO
    Groundwater ............ NO
    Flow Routing ........... YES
    Ponding Allowed ........ NO
    Water Quality .......... NO
  Infiltration Method ...... HORTON
  Flow Routing Method ...... DYNWAVE
  Surcharge Method ......... EXTRAN
  Starting Date ............ 11/16/2007 03:55:00
  Ending Date .............. 11/16/2007 14:10:00
  Antecedent Dry Days ...... 0.0
  Report Time Step ......... 00:05:00
  Wet Time Step ............ 00:05:00
  Dry Time Step ............ 01:00:00
  Routing Time Step ........ 30.00 sec
  Variable Time Step ....... YES
  Maximum Trials ........... 8
  Number of Threads ........ 1
  Head Tolerance ........... 0.001500 m
  
  
  **************************        Volume         Depth
  Runoff Quantity Continuity     hectare-m            mm
  **************************     ---------       -------
  Total Precipitation ......         1.222         6.782
  Evaporation Loss .........         0.000         0.000
  Infiltration Loss ........         0.000         0.000
  Surface Runoff ...........         1.186         6.579
  Final Storage ............         0.044         0.246
  Continuity Error (%) .....        -0.638
  
  
  **************************        Volume        Volume
  Flow Routing Continuity        hectare-m      10^6 ltr
  **************************     ---------     ---------
  Dry Weather Inflow .......         0.449         4.490
  Wet Weather Inflow .......         1.185        11.846
  Groundwater Inflow .......         0.000         0.000
  RDII Inflow ..............         0.000         0.000
  External Inflow ..........         0.000         0.000
  External Outflow .........         0.630         6.299
  Flooding Loss ............         0.095         0.950
  Evaporation Loss .........         0.000         0.000
  Exfiltration Loss ........         0.000         0.000
  Initial Stored Volume ....         0.000         0.000
  Final Stored Volume ......         0.694         6.936
  Continuity Error (%) .....        13.169
  
  
  *************************
  Highest Continuity Errors
  *************************
  Node T5 (25.66%)
  Node T2 (23.76%)
  Node T3 (22.55%)
  Node T6 (18.36%)
  Node T4 (17.82%)
  
  
  ***************************
  Time-Step Critical Elements
  ***************************
  Link C15 (42.76%)
  
  
  ********************************
  Highest Flow Instability Indexes
  ********************************
  Link C11 (5)
  Link C3 (5)
  Link V3 (5)
  Link C13 (4)
  Link V6 (4)
  
  
  *************************
  Routing Time Step Summary
  *************************
  Minimum Time Step           :     0.30 sec
  Average Time Step           :    26.50 sec
  Maximum Time Step           :    30.00 sec
  Percent in Steady State     :    10.81
  Average Iterations per Step :     2.22
  Percent Not Converging      :     0.32
  
  
  ***************************
  Subcatchment Runoff Summary
  ***************************
  
  ------------------------------------------------------------------------------------------------------------------------------
                            Total      Total      Total      Total     Imperv       Perv      Total       Total     Peak  Runoff
                           Precip      Runon       Evap      Infil     Runoff     Runoff     Runoff      Runoff   Runoff   Coeff
  Subcatchment                 mm         mm         mm         mm         mm         mm         mm    10^6 ltr      CMS
  ------------------------------------------------------------------------------------------------------------------------------
  SC01                       6.60       0.00       0.00       0.00       6.48       0.00       6.48        2.14     0.64   0.981
  SC010                      6.60       0.00       0.00       0.00       6.40       0.00       6.40        0.75     0.18   0.970
  SC02                       6.06       0.00       0.00       0.00       5.93       0.00       5.93        1.35     0.41   0.978
  SC03                       8.17       0.00       0.00       0.00       8.20       0.00       8.20        1.48     0.86   1.003
  SC04                       6.06       0.00       0.00       0.00       5.67       0.00       5.67        0.39     0.07   0.935
  SC05                       6.60       0.00       0.00       0.00       6.46       0.00       6.46        1.01     0.28   0.978
  SC06                       6.07       0.00       0.00       0.00       5.63       0.00       5.63        1.83     0.19   0.927
  SC07                       6.06       0.00       0.00       0.00       5.67       0.00       5.67        0.27     0.05   0.935
  SC08                       8.17       0.00       0.00       0.00       8.01       0.00       8.01        2.24     0.89   0.980
  SC09                       6.07       0.00       0.00       0.00       5.82       0.00       5.82        0.40     0.05   0.959
  
  
  ******************
  Node Depth Summary
  ******************
  
  ---------------------------------------------------------------------------------
                                 Average  Maximum  Maximum  Time of Max    Reported
                                   Depth    Depth      HGL   Occurrence   Max Depth
  Node                 Type       Meters   Meters   Meters  days hr:min      Meters
  ---------------------------------------------------------------------------------
  CSO10                JUNCTION     0.14     0.80    30.80     0  07:51        0.74
  CSO7                 JUNCTION     0.09     0.22    34.22     0  08:01        0.21
  CSO8                 JUNCTION     0.23     2.00    34.00     0  07:45        2.00
  CSO9                 JUNCTION     0.11     0.21    40.21     0  07:50        0.21
  J1                   JUNCTION     0.07     0.18    34.18     0  07:51        0.18
  J10                  JUNCTION     0.11     0.35    29.35     0  07:50        0.34
  J11                  JUNCTION     0.11     0.29    31.29     0  07:58        0.29
  J12                  JUNCTION     0.21     0.55    26.55     0  08:58        0.54
  J13                  JUNCTION     0.06     0.17    29.17     0  08:00        0.17
  J14                  JUNCTION     0.11     0.19    20.19     0  08:57        0.19
  J15                  JUNCTION     0.16     0.33    15.33     0  07:57        0.33
  J16                  JUNCTION     0.07     0.20    30.20     0  07:51        0.19
  J17                  JUNCTION     0.06     0.13    20.13     0  08:55        0.13
  J18                  JUNCTION     0.06     0.16    29.16     0  07:55        0.16
  J19                  JUNCTION     0.13     0.17     8.17     0  08:03        0.17
  J2                   JUNCTION     0.06     0.08    25.08     0  09:18        0.08
  J3                   JUNCTION     0.10     0.15    18.15     0  09:40        0.15
  J4                   JUNCTION     0.11     0.23    33.23     0  08:04        0.23
  J5                   JUNCTION     0.06     0.12    32.12     0  08:03        0.12
  J6                   JUNCTION     0.05     0.10    25.10     0  09:20        0.10
  J7                   JUNCTION     0.08     0.15    39.15     0  07:54        0.15
  J8                   JUNCTION     0.11     0.18    36.18     0  07:55        0.18
  J9                   JUNCTION     0.10     0.15    29.15     0  08:35        0.15
  Out_to_WWTP          OUTFALL      0.13     0.17     6.17     0  08:56        0.17
  T1                   STORAGE      2.56     5.00    15.00     0  08:02        5.00
  T2                   STORAGE      1.21     2.75    23.75     0  10:05        2.75
  T3                   STORAGE      2.14     4.55    26.55     0  09:02        4.55
  T4                   STORAGE      1.07     2.80    29.80     0  10:15        2.80
  T5                   STORAGE      1.91     4.41    31.41     0  09:15        4.41
  T6                   STORAGE      1.70     3.98    34.98     0  10:15        3.98
  
  
  *******************
  Node Inflow Summary
  *******************
  
  -------------------------------------------------------------------------------------------------
                                  Maximum  Maximum                  Lateral       Total        Flow
                                  Lateral    Total  Time of Max      Inflow      Inflow     Balance
                                   Inflow   Inflow   Occurrence      Volume      Volume       Error
  Node                 Type           CMS      CMS  days hr:min    10^6 ltr    10^6 ltr     Percent
  -------------------------------------------------------------------------------------------------
  CSO10                JUNCTION     0.187    0.187     0  07:50       0.911       0.912       0.065
  CSO7                 JUNCTION     0.061    0.061     0  08:00       0.601       0.603       0.292
  CSO8                 JUNCTION     0.898    0.898     0  07:50        2.54        2.55      -0.000
  CSO9                 JUNCTION     0.059    0.059     0  07:50       0.625       0.626       0.157
  J1                   JUNCTION     0.306    0.306     0  07:50        1.65        1.65       0.167
  J10                  JUNCTION     0.875    1.343     0  07:50        1.91        4.32      -0.122
  J11                  JUNCTION     0.000    0.486     0  07:57           0        2.41      -0.072
  J12                  JUNCTION     0.000    1.394     0  07:50           0        6.83       3.878
  J13                  JUNCTION     0.426    0.426     0  08:00        1.88        1.89      -0.134
  J14                  JUNCTION     0.000    0.181     0  09:02           0        2.77       0.446
  J15                  JUNCTION     0.000    1.037     0  07:55           0        8.65       0.496
  J16                  JUNCTION     0.659    0.659     0  07:50        2.77        2.77       0.025
  J17                  JUNCTION     0.000    0.102     0  08:50           0       0.893      11.655
  J18                  JUNCTION     0.000    0.187     0  07:51           0       0.912      -0.171
  J19                  JUNCTION     0.000    0.271     0  08:02           0        6.31       0.197
  J2                   JUNCTION     0.000    0.037     0  09:15           0       0.797       0.679
  J3                   JUNCTION     0.000    0.245     0  09:34           0        4.19       0.611
  J4                   JUNCTION     0.000    0.060     0  08:01           0       0.601       0.278
  J5                   JUNCTION     0.077    0.122     0  08:02       0.537        1.14       0.048
  J6                   JUNCTION     0.000    0.058     0  09:05           0       0.655       2.020
  J7                   JUNCTION     0.000    0.059     0  07:51           0       0.625       0.183
  J8                   JUNCTION     0.228    0.285     0  07:53         2.9        3.53       0.137
  J9                   JUNCTION     0.000    0.150     0  09:05           0         2.4      -2.384
  Out_to_WWTP          OUTFALL      0.000    0.271     0  08:04           0         6.3       0.000
  T1                   STORAGE      0.000    0.988     0  07:58           0        8.61      10.155
  T2                   STORAGE      0.000    0.415     0  08:00           0        1.89      31.158
  T3                   STORAGE      0.000    1.251     0  07:53           0        6.58      29.108
  T4                   STORAGE      0.000    0.121     0  08:03           0        1.14      21.690
  T5                   STORAGE      0.000    0.303     0  07:51           0        1.65      34.516
  T6                   STORAGE      0.000    0.284     0  07:55           0        3.53      22.492
  
  
  **********************
  Node Surcharge Summary
  **********************
  
  Surcharging occurs when water rises above the top of the highest conduit.
  ---------------------------------------------------------------------
                                               Max. Height   Min. Depth
                                   Hours       Above Crown    Below Rim
  Node                 Type      Surcharged         Meters       Meters
  ---------------------------------------------------------------------
  CSO10                JUNCTION        0.20          0.361        0.199
  CSO8                 JUNCTION        0.36          1.547        0.000
  
  
  *********************
  Node Flooding Summary
  *********************
  
  Flooding refers to all water that overflows a node, whether it ponds or not.
  --------------------------------------------------------------------------
                                                             Total   Maximum
                                 Maximum   Time of Max       Flood    Ponded
                        Hours       Rate    Occurrence      Volume     Depth
  Node                 Flooded       CMS   days hr:min    10^6 ltr    Meters
  --------------------------------------------------------------------------
  CSO8                    0.21     0.406      0  07:50       0.144     0.000
  T1                      1.92     0.692      0  08:02       0.804     0.000
  
  
  **********************
  Storage Volume Summary
  **********************
  
  --------------------------------------------------------------------------------------------------
                         Average     Avg  Evap Exfil       Maximum     Max    Time of Max    Maximum
                          Volume    Pcnt  Pcnt  Pcnt        Volume    Pcnt     Occurrence    Outflow
  Storage Unit           1000 m3    Full  Loss  Loss       1000 m3    Full    days hr:min        CMS
  --------------------------------------------------------------------------------------------------
  T1                       0.359      51     0     0         0.700     100       0  08:02      0.271
  T2                       0.243      24     0     0         0.551      55       0  10:05      0.102
  T3                       1.114      43     0     0         2.367      91       0  09:02      0.232
  T4                       0.107      21     0     0         0.280      56       0  10:15      0.058
  T5                       0.191      38     0     0         0.441      88       0  09:15      0.037
  T6                       0.204      34     0     0         0.477      80       0  10:15      0.150
  
  
  ***********************
  Outfall Loading Summary
  ***********************
  
  -----------------------------------------------------------
                         Flow       Avg       Max       Total
                         Freq      Flow      Flow      Volume
  Outfall Node           Pcnt       CMS       CMS    10^6 ltr
  -----------------------------------------------------------
  Out_to_WWTP           98.76     0.177     0.271       6.299
  -----------------------------------------------------------
  System                98.76     0.177     0.271       6.299
  
  
  ********************
  Link Flow Summary
  ********************
  
  -----------------------------------------------------------------------------
                                 Maximum  Time of Max   Maximum    Max/    Max/
                                  |Flow|   Occurrence   |Veloc|    Full    Full
  Link                 Type          CMS  days hr:min     m/sec    Flow   Depth
  -----------------------------------------------------------------------------
  C1                   CONDUIT     0.037     0  09:18      1.06    0.01    0.11
  C10                  CONDUIT     0.284     0  07:55      2.18    0.03    0.56
  C11                  CONDUIT     0.237     0  09:40      1.89    0.01    0.12
  C12                  CONDUIT     0.140     0  08:35      1.20    0.01    0.17
  C13                  CONDUIT     1.251     0  07:53      1.54    0.07    0.64
  C14                  CONDUIT     0.271     0  08:04      2.08    0.02    0.09
  C15                  CONDUIT     0.486     0  07:57      3.63    1.54    0.83
  C16                  CONDUIT     0.485     0  07:55      1.77    0.05    0.16
  C17                  CONDUIT     1.316     0  07:51      3.62    0.07    0.18
  C18                  CONDUIT     0.415     0  08:00      1.40    0.02    0.53
  C19                  CONDUIT     0.100     0  08:55      1.29    0.03    0.22
  C2                   CONDUIT     0.055     0  09:20      1.46    0.06    0.19
  C20                  CONDUIT     0.650     0  07:51      2.98    0.02    0.13
  C21                  CONDUIT     0.187     0  07:51      1.77    1.07    0.68
  C22                  CONDUIT     0.186     0  07:55      1.48    0.08    0.31
  C23                  CONDUIT     0.988     0  07:58      1.21    0.11    0.61
  C3                   CONDUIT     0.183     0  09:34      2.22    0.07    0.17
  C4                   CONDUIT     0.303     0  07:51      6.63    0.07    0.59
  C5                   CONDUIT     0.060     0  08:01      1.50    1.03    0.85
  C6                   CONDUIT     0.054     0  08:05      1.26    0.85    0.59
  C7                   CONDUIT     0.121     0  08:03      1.16    0.03    0.56
  C8                   CONDUIT     0.059     0  07:51      1.39    0.74    0.57
  C9                   CONDUIT     0.057     0  07:54      1.03    0.20    0.33
  V1                   ORIFICE     0.271     0  08:02                      1.00
  V2                   ORIFICE     0.102     0  08:50                      1.00
  V3                   ORIFICE     0.181     0  09:02                      1.00
  V4                   ORIFICE     0.058     0  09:05                      1.00
  V5                   ORIFICE     0.037     0  09:15                      1.00
  V6                   ORIFICE     0.150     0  09:05                      1.00
  
  
  ***************************
  Flow Classification Summary
  ***************************
  
  -------------------------------------------------------------------------------------
                      Adjusted    ---------- Fraction of Time in Flow Class ---------- 
                       /Actual         Up    Down  Sub   Sup   Up    Down  Norm  Inlet 
  Conduit               Length    Dry  Dry   Dry   Crit  Crit  Crit  Crit  Ltd   Ctrl  
  -------------------------------------------------------------------------------------
  C1                      1.00   0.00  0.00  0.00  0.56  0.43  0.00  0.00  0.95  0.00
  C10                     1.00   0.00  0.00  0.00  0.95  0.05  0.00  0.00  0.97  0.00
  C11                     1.00   0.00  0.00  0.00  0.31  0.69  0.00  0.00  1.00  0.00
  C12                     1.00   0.00  0.00  0.00  0.72  0.28  0.00  0.00  1.00  0.00
  C13                     1.00   0.00  0.00  0.00  0.90  0.09  0.00  0.00  0.72  0.00
  C14                     1.00   0.01  0.00  0.00  0.01  0.98  0.00  0.00  0.55  0.00
  C15                     1.00   0.02  0.00  0.00  0.00  0.98  0.00  0.00  0.00  0.00
  C16                     1.00   0.00  0.02  0.00  0.21  0.77  0.00  0.00  0.20  0.00
  C17                     1.00   0.00  0.00  0.00  0.31  0.69  0.00  0.00  0.95  0.00
  C18                     1.00   0.00  0.00  0.00  0.91  0.09  0.00  0.00  0.96  0.00
  C19                     1.00   0.00  0.00  0.00  0.91  0.08  0.00  0.00  1.00  0.00
  C2                      1.00   0.00  0.00  0.00  0.57  0.43  0.00  0.00  0.97  0.00
  C20                     1.00   0.00  0.00  0.00  0.38  0.62  0.00  0.00  0.98  0.00
  C21                     1.00   0.00  0.00  0.00  0.01  0.99  0.00  0.00  0.00  0.00
  C22                     1.00   0.00  0.00  0.00  0.91  0.09  0.00  0.00  1.00  0.00
  C23                     1.00   0.00  0.00  0.00  0.91  0.08  0.00  0.00  0.94  0.00
  C3                      1.00   0.00  0.01  0.00  0.05  0.95  0.00  0.00  0.43  0.00
  C4                      1.00   0.00  0.00  0.00  0.94  0.06  0.00  0.00  0.97  0.00
  C5                      1.00   0.00  0.00  0.00  0.91  0.09  0.00  0.00  0.96  0.00
  C6                      1.00   0.00  0.00  0.00  0.01  0.99  0.00  0.00  0.00  0.00
  C7                      1.00   0.00  0.00  0.00  0.93  0.07  0.00  0.00  0.95  0.00
  C8                      1.00   0.00  0.00  0.00  0.00  1.00  0.00  0.00  0.00  0.00
  C9                      1.00   0.00  0.00  0.00  1.00  0.00  0.00  0.00  1.00  0.00
  
  
  *************************
  Conduit Surcharge Summary
  *************************
  
  ----------------------------------------------------------------------------
                                                           Hours        Hours 
                         --------- Hours Full --------   Above Full   Capacity
  Conduit                Both Ends  Upstream  Dnstream   Normal Flow   Limited
  ----------------------------------------------------------------------------
  C10                         0.01      0.01      6.21      0.01         0.01
  C13                         0.01      0.01      5.23      0.01         0.01
  C15                         0.01      0.36      0.01      0.38         0.01
  C18                         0.01      0.01      2.08      0.01         0.01
  C21                         0.01      0.20      0.01      0.18         0.01
  C23                         0.01      0.01      6.58      0.01         0.01
  C4                          0.01      0.01      6.74      0.01         0.01
  C5                          0.01      0.01      0.01      0.03         0.01
  C7                          0.01      0.01      4.61      0.01         0.01
  

  Analysis begun on:  Sun Jul 17 20:19:14 2022
  Analysis ended on:  Sun Jul 17 20:19:15 2022
  Total elapsed time: 00:00:01