
  EPA STORM WATER MANAGEMENT MODEL - VERSION 5.1 (Build 5.3.0.dev0)
  --------------------------------------------------------------

  
  *********************************************************
  NOTE: The summary statistics displayed in this report are
  based on results found at every computational time step,  
  not just on results from each reporting time step.
  *********************************************************
  
  ****************
  Analysis Options
  ****************
  Flow Units ............... CMS
  Process Models:
    Rainfall/Runoff ........ YES
    RDII ................... NO
    Snowmelt ............... NO
    Groundwater ............ NO
    Flow Routing ........... YES
    Ponding Allowed ........ NO
    Water Quality .......... NO
  Infiltration Method ...... HORTON
  Flow Routing Method ...... DYNWAVE
  Surcharge Method ......... EXTRAN
  Starting Date ............ 11/13/2007 14:40:00
  Ending Date .............. 11/13/2007 19:50:00
  Antecedent Dry Days ...... 0.0
  Report Time Step ......... 00:05:00
  Wet Time Step ............ 00:05:00
  Dry Time Step ............ 01:00:00
  Routing Time Step ........ 30.00 sec
  Variable Time Step ....... YES
  Maximum Trials ........... 8
  Number of Threads ........ 1
  Head Tolerance ........... 0.001500 m
  
  
  **************************        Volume         Depth
  Runoff Quantity Continuity     hectare-m            mm
  **************************     ---------       -------
  Total Precipitation ......         1.540         8.548
  Evaporation Loss .........         0.000         0.000
  Infiltration Loss ........         0.000         0.000
  Surface Runoff ...........         1.508         8.368
  Final Storage ............         0.048         0.264
  Continuity Error (%) .....        -0.983
  
  
  **************************        Volume        Volume
  Flow Routing Continuity        hectare-m      10^6 ltr
  **************************     ---------     ---------
  Dry Weather Inflow .......         0.190         1.902
  Wet Weather Inflow .......         1.507        15.069
  Groundwater Inflow .......         0.000         0.000
  RDII Inflow ..............         0.000         0.000
  External Inflow ..........         0.000         0.000
  External Outflow .........         0.383         3.833
  Flooding Loss ............         0.406         4.059
  Evaporation Loss .........         0.000         0.000
  Exfiltration Loss ........         0.000         0.000
  Initial Stored Volume ....         0.000         0.000
  Final Stored Volume ......         0.671         6.705
  Continuity Error (%) .....        13.989
  
  
  *************************
  Highest Continuity Errors
  *************************
  Node T2 (33.79%)
  Node T3 (26.32%)
  Node T6 (25.11%)
  Node T4 (24.38%)
  Node T5 (22.63%)
  
  
  ***************************
  Time-Step Critical Elements
  ***************************
  Link C15 (36.95%)
  Link C21 (22.85%)
  
  
  ********************************
  Highest Flow Instability Indexes
  ********************************
  Link C12 (4)
  Link V6 (3)
  Link C13 (3)
  Link C23 (2)
  Link C3 (2)
  
  
  *************************
  Routing Time Step Summary
  *************************
  Minimum Time Step           :     0.32 sec
  Average Time Step           :    24.18 sec
  Maximum Time Step           :    30.00 sec
  Percent in Steady State     :     2.10
  Average Iterations per Step :     3.39
  Percent Not Converging      :     3.05
  
  
  ***************************
  Subcatchment Runoff Summary
  ***************************
  
  ------------------------------------------------------------------------------------------------------------------------------
                            Total      Total      Total      Total     Imperv       Perv      Total       Total     Peak  Runoff
                           Precip      Runon       Evap      Infil     Runoff     Runoff     Runoff      Runoff   Runoff   Coeff
  Subcatchment                 mm         mm         mm         mm         mm         mm         mm    10^6 ltr      CMS
  ------------------------------------------------------------------------------------------------------------------------------
  SC01                      10.66       0.00       0.00       0.00      10.68       0.00      10.68        3.53     2.00   1.002
  SC010                     10.66       0.00       0.00       0.00      10.59       0.00      10.59        1.24     0.62   0.993
  SC02                      11.32       0.00       0.00       0.00      11.32       0.00      11.32        2.57     1.94   1.000
  SC03                       4.68       0.00       0.00       0.00       4.59       0.00       4.59        0.83     0.22   0.981
  SC04                      11.32       0.00       0.00       0.00      11.02       0.00      11.02        0.76     0.35   0.974
  SC05                      10.66       0.00       0.00       0.00      10.66       0.00      10.66        1.66     0.91   1.000
  SC06                       7.41       0.00       0.00       0.00       6.84       0.00       6.84        2.22     0.48   0.922
  SC07                      11.32       0.00       0.00       0.00      11.03       0.00      11.03        0.52     0.24   0.974
  SC08                       4.68       0.00       0.00       0.00       4.45       0.00       4.45        1.25     0.27   0.952
  SC09                       7.41       0.00       0.00       0.00       7.10       0.00       7.10        0.49     0.12   0.959
  
  
  ******************
  Node Depth Summary
  ******************
  
  ---------------------------------------------------------------------------------
                                 Average  Maximum  Maximum  Time of Max    Reported
                                   Depth    Depth      HGL   Occurrence   Max Depth
  Node                 Type       Meters   Meters   Meters  days hr:min      Meters
  ---------------------------------------------------------------------------------
  CSO10                JUNCTION     0.24     1.00    31.00     0  01:07        1.00
  CSO7                 JUNCTION     0.28     1.20    35.20     0  01:30        1.20
  CSO8                 JUNCTION     0.15     0.35    32.35     0  02:50        0.35
  CSO9                 JUNCTION     0.33     2.00    42.00     0  02:39        2.00
  J1                   JUNCTION     0.10     0.32    34.32     0  01:15        0.32
  J10                  JUNCTION     0.11     0.21    29.21     0  02:54        0.21
  J11                  JUNCTION     0.11     0.23    31.23     0  02:54        0.23
  J12                  JUNCTION     0.14     0.26    26.26     0  02:59        0.26
  J13                  JUNCTION     0.09     0.36    29.36     0  01:35        0.35
  J14                  JUNCTION     0.10     0.15    20.15     0  03:15        0.15
  J15                  JUNCTION     0.21     0.50    15.50     0  01:16        0.49
  J16                  JUNCTION     0.10     0.34    30.34     0  01:15        0.34
  J17                  JUNCTION     0.07     0.15    20.15     0  02:50        0.15
  J18                  JUNCTION     0.08     0.16    29.16     0  01:29        0.16
  J19                  JUNCTION     0.14     0.17     8.17     0  01:26        0.17
  J2                   JUNCTION     0.07     0.08    25.08     0  02:39        0.08
  J3                   JUNCTION     0.10     0.15    18.15     0  03:10        0.15
  J4                   JUNCTION     0.22     0.78    33.78     0  01:34        0.75
  J5                   JUNCTION     0.08     0.22    32.22     0  01:36        0.21
  J6                   JUNCTION     0.06     0.12    25.12     0  03:09        0.12
  J7                   JUNCTION     0.11     0.23    39.23     0  02:43        0.23
  J8                   JUNCTION     0.13     0.26    36.26     0  02:45        0.26
  J9                   JUNCTION     0.10     0.16    29.16     0  03:50        0.16
  Out_to_WWTP          OUTFALL      0.14     0.17     6.17     0  03:32        0.17
  T1                   STORAGE      3.80     5.00    15.00     0  01:25        5.00
  T2                   STORAGE      3.37     5.00    26.00     0  02:42        5.00
  T3                   STORAGE      1.29     3.15    25.15     0  05:10        3.15
  T4                   STORAGE      3.10     5.00    32.00     0  02:52        5.00
  T5                   STORAGE      3.82     5.00    32.00     0  01:53        5.00
  T6                   STORAGE      2.49     5.00    36.00     0  03:06        5.00
  
  
  *******************
  Node Inflow Summary
  *******************
  
  -------------------------------------------------------------------------------------------------
                                  Maximum  Maximum                  Lateral       Total        Flow
                                  Lateral    Total  Time of Max      Inflow      Inflow     Balance
                                   Inflow   Inflow   Occurrence      Volume      Volume       Error
  Node                 Type           CMS      CMS  days hr:min    10^6 ltr    10^6 ltr     Percent
  -------------------------------------------------------------------------------------------------
  CSO10                JUNCTION     0.620    0.620     0  01:15        1.31        1.31      -0.109
  CSO7                 JUNCTION     0.246    0.246     0  01:35       0.665       0.666       0.028
  CSO8                 JUNCTION     0.283    0.283     0  02:50        1.37        1.37       0.035
  CSO9                 JUNCTION     0.129    0.129     0  02:40       0.585       0.585       0.119
  J1                   JUNCTION     0.927    0.927     0  01:15        1.93        1.93      -0.036
  J10                  JUNCTION     0.229    0.475     0  02:52        1.01        2.38       0.164
  J11                  JUNCTION     0.000    0.283     0  02:50           0        1.37       0.279
  J12                  JUNCTION     0.000    0.611     0  02:56           0        3.69       0.660
  J13                  JUNCTION     1.952    1.952     0  01:35        2.81        2.81      -0.393
  J14                  JUNCTION     0.000    0.118     0  03:15           0        1.06       0.600
  J15                  JUNCTION     0.000    2.276     0  01:15           0        7.55       1.168
  J16                  JUNCTION     2.011    2.011     0  01:15        3.78        3.78      -0.094
  J17                  JUNCTION     0.000    0.140     0  02:42           0       0.701       0.661
  J18                  JUNCTION     0.000    0.202     0  01:29           0        1.03       0.114
  J19                  JUNCTION     0.000    0.271     0  01:25           0        3.84       0.306
  J2                   JUNCTION     0.000    0.039     0  01:53           0       0.571       0.937
  J3                   JUNCTION     0.000    0.231     0  03:10           0        2.07       1.875
  J4                   JUNCTION     0.000    0.085     0  01:32           0       0.529       0.646
  J5                   JUNCTION     0.349    0.423     0  01:35       0.824        1.35       0.075
  J6                   JUNCTION     0.000    0.080     0  02:55           0        0.45       0.560
  J7                   JUNCTION     0.000    0.127     0  02:42           0       0.585       0.609
  J8                   JUNCTION     0.506    0.631     0  02:45        2.68        3.26       0.258
  J9                   JUNCTION     0.000    0.175     0  03:06           0        1.33       1.423
  Out_to_WWTP          OUTFALL      0.000    0.271     0  01:26           0        3.83       0.000
  T1                   STORAGE      0.000    2.154     0  01:16           0        7.46       9.480
  T2                   STORAGE      0.000    1.902     0  01:35           0        2.82      51.040
  T3                   STORAGE      0.000    0.597     0  02:59           0        3.67      35.728
  T4                   STORAGE      0.000    0.416     0  01:36           0        1.35      32.247
  T5                   STORAGE      0.000    0.920     0  01:15           0        1.93      29.249
  T6                   STORAGE      0.000    0.630     0  02:45           0        3.25      33.523
  
  
  **********************
  Node Surcharge Summary
  **********************
  
  Surcharging occurs when water rises above the top of the highest conduit.
  ---------------------------------------------------------------------
                                               Max. Height   Min. Depth
                                   Hours       Above Crown    Below Rim
  Node                 Type      Surcharged         Meters       Meters
  ---------------------------------------------------------------------
  CSO10                JUNCTION        0.45          0.560        0.000
  CSO7                 JUNCTION        0.95          0.945        0.000
  CSO9                 JUNCTION        0.88          1.682        0.000
  J4                   JUNCTION        0.92          0.482        1.218
  
  
  *********************
  Node Flooding Summary
  *********************
  
  Flooding refers to all water that overflows a node, whether it ponds or not.
  --------------------------------------------------------------------------
                                                             Total   Maximum
                                 Maximum   Time of Max       Flood    Ponded
                        Hours       Rate    Occurrence      Volume     Depth
  Node                 Flooded       CMS   days hr:min    10^6 ltr    Meters
  --------------------------------------------------------------------------
  CSO10                   0.38     0.418      0  01:15       0.277     0.000
  CSO7                    0.62     0.170      0  01:35       0.136     0.000
  CSO9                    0.05     0.003      0  02:40       0.000     0.000
  T1                      2.03     0.988      0  01:25       2.396     0.000
  T2                      1.67     0.238      0  02:50       0.167     0.000
  T4                      1.10     0.107      0  02:52       0.089     0.000
  T5                      1.46     0.183      0  02:11       0.474     0.000
  T6                      0.73     0.517      0  03:11       0.508     0.000
  
  
  **********************
  Storage Volume Summary
  **********************
  
  --------------------------------------------------------------------------------------------------
                         Average     Avg  Evap Exfil       Maximum     Max    Time of Max    Maximum
                          Volume    Pcnt  Pcnt  Pcnt        Volume    Pcnt     Occurrence    Outflow
  Storage Unit           1000 m3    Full  Loss  Loss       1000 m3    Full    days hr:min        CMS
  --------------------------------------------------------------------------------------------------
  T1                       0.532      76     0     0         0.700     100       0  01:25      0.271
  T2                       0.674      67     0     0         1.000     100       0  02:42      0.140
  T3                       0.669      26     0     0         1.639      63       0  05:10      0.118
  T4                       0.310      62     0     0         0.500     100       0  02:52      0.080
  T5                       0.382      76     0     0         0.500     100       0  01:53      0.039
  T6                       0.299      50     0     0         0.600     100       0  03:06      0.175
  
  
  ***********************
  Outfall Loading Summary
  ***********************
  
  -----------------------------------------------------------
                         Flow       Avg       Max       Total
                         Freq      Flow      Flow      Volume
  Outfall Node           Pcnt       CMS       CMS    10^6 ltr
  -----------------------------------------------------------
  Out_to_WWTP           98.56     0.218     0.271       3.833
  -----------------------------------------------------------
  System                98.56     0.218     0.271       3.833
  
  
  ********************
  Link Flow Summary
  ********************
  
  -----------------------------------------------------------------------------
                                 Maximum  Time of Max   Maximum    Max/    Max/
                                  |Flow|   Occurrence   |Veloc|    Full    Full
  Link                 Type          CMS  days hr:min     m/sec    Flow   Depth
  -----------------------------------------------------------------------------
  C1                   CONDUIT     0.039     0  02:32      1.23    0.01    0.11
  C10                  CONDUIT     0.630     0  02:45      1.69    0.06    0.59
  C11                  CONDUIT     0.229     0  03:10      1.85    0.01    0.15
  C12                  CONDUIT     0.175     0  03:50      1.43    0.01    0.10
  C13                  CONDUIT     0.597     0  02:59      1.54    0.04    0.56
  C14                  CONDUIT     0.271     0  01:26      2.08    0.02    0.09
  C15                  CONDUIT     0.283     0  02:50      2.63    0.90    0.63
  C16                  CONDUIT     0.278     0  02:54      1.49    0.03    0.11
  C17                  CONDUIT     0.471     0  02:54      2.49    0.02    0.12
  C18                  CONDUIT     1.902     0  01:35      3.22    0.07    0.58
  C19                  CONDUIT     0.140     0  02:50      1.39    0.05    0.27
  C2                   CONDUIT     0.080     0  03:09      1.81    0.09    0.23
  C20                  CONDUIT     1.998     0  01:15      5.04    0.06    0.21
  C21                  CONDUIT     0.202     0  01:29      1.91    1.16    0.69
  C22                  CONDUIT     0.202     0  01:30      1.60    0.09    0.41
  C23                  CONDUIT     2.154     0  01:16      2.29    0.24    0.67
  C3                   CONDUIT     0.117     0  03:15      1.71    0.04    0.15
  C4                   CONDUIT     0.920     0  01:15      2.44    0.22    0.66
  C5                   CONDUIT     0.085     0  01:32      1.67    1.45    1.00
  C6                   CONDUIT     0.074     0  01:35      1.29    1.18    0.86
  C7                   CONDUIT     0.416     0  01:36      1.47    0.10    0.60
  C8                   CONDUIT     0.127     0  02:42      1.75    1.60    0.86
  C9                   CONDUIT     0.125     0  02:43      1.32    0.43    0.49
  V1                   ORIFICE     0.271     0  01:25                      1.00
  V2                   ORIFICE     0.140     0  02:42                      1.00
  V3                   ORIFICE     0.118     0  03:15                      1.00
  V4                   ORIFICE     0.080     0  02:55                      1.00
  V5                   ORIFICE     0.039     0  01:53                      1.00
  V6                   ORIFICE     0.175     0  03:06                      1.00
  
  
  ***************************
  Flow Classification Summary
  ***************************
  
  -------------------------------------------------------------------------------------
                      Adjusted    ---------- Fraction of Time in Flow Class ---------- 
                       /Actual         Up    Down  Sub   Sup   Up    Down  Norm  Inlet 
  Conduit               Length    Dry  Dry   Dry   Crit  Crit  Crit  Crit  Ltd   Ctrl  
  -------------------------------------------------------------------------------------
  C1                      1.00   0.00  0.00  0.00  0.20  0.80  0.00  0.00  0.93  0.00
  C10                     1.00   0.00  0.00  0.00  0.95  0.05  0.00  0.00  0.97  0.00
  C11                     1.00   0.00  0.00  0.00  0.51  0.48  0.00  0.00  1.00  0.00
  C12                     1.00   0.00  0.00  0.00  0.57  0.43  0.00  0.00  0.98  0.00
  C13                     1.00   0.00  0.00  0.00  0.85  0.15  0.00  0.00  0.85  0.00
  C14                     1.00   0.01  0.00  0.00  0.01  0.98  0.00  0.00  0.28  0.00
  C15                     1.00   0.00  0.00  0.00  0.00  1.00  0.00  0.00  0.00  0.00
  C16                     1.00   0.00  0.00  0.00  0.50  0.50  0.00  0.00  0.31  0.00
  C17                     1.00   0.00  0.00  0.00  0.21  0.79  0.00  0.00  0.95  0.00
  C18                     1.00   0.00  0.00  0.00  0.72  0.28  0.00  0.00  0.95  0.00
  C19                     1.00   0.00  0.00  0.00  0.90  0.10  0.00  0.00  1.00  0.00
  C2                      1.00   0.00  0.00  0.00  0.24  0.76  0.00  0.00  0.93  0.00
  C20                     1.00   0.00  0.00  0.00  0.44  0.56  0.00  0.00  0.96  0.00
  C21                     1.00   0.00  0.00  0.00  0.01  0.99  0.00  0.00  0.00  0.00
  C22                     1.00   0.00  0.00  0.00  0.75  0.25  0.00  0.00  1.00  0.00
  C23                     1.00   0.00  0.00  0.00  0.85  0.15  0.00  0.00  0.92  0.00
  C3                      1.00   0.00  0.01  0.00  0.09  0.90  0.00  0.00  0.59  0.00
  C4                      1.00   0.00  0.00  0.00  0.93  0.07  0.00  0.00  0.97  0.00
  C5                      1.00   0.00  0.00  0.00  0.90  0.10  0.00  0.00  0.77  0.00
  C6                      1.00   0.00  0.00  0.00  0.28  0.72  0.00  0.00  0.01  0.00
  C7                      1.00   0.00  0.00  0.00  0.91  0.09  0.00  0.00  0.95  0.00
  C8                      1.00   0.00  0.00  0.00  0.27  0.73  0.00  0.00  0.00  0.00
  C9                      1.00   0.00  0.00  0.00  1.00  0.00  0.00  0.00  1.00  0.00
  
  
  *************************
  Conduit Surcharge Summary
  *************************
  
  ----------------------------------------------------------------------------
                                                           Hours        Hours 
                         --------- Hours Full --------   Above Full   Capacity
  Conduit                Both Ends  Upstream  Dnstream   Normal Flow   Limited
  ----------------------------------------------------------------------------
  C10                         0.01      0.01      2.62      0.01         0.01
  C13                         0.01      0.01      1.89      0.01         0.01
  C18                         0.01      0.01      3.53      0.01         0.01
  C21                         0.01      0.45      0.01      0.42         0.01
  C23                         0.01      0.01      3.93      0.01         0.01
  C4                          0.01      0.01      3.98      0.01         0.01
  C5                          0.92      0.96      1.08      1.06         0.87
  C6                          0.01      0.92      0.01      0.79         0.01
  C7                          0.01      0.01      3.52      0.01         0.01
  C8                          0.01      0.88      0.01      0.88         0.01
  

  Analysis begun on:  Sun Jul 17 20:18:20 2022
  Analysis ended on:  Sun Jul 17 20:18:20 2022
  Total elapsed time: < 1 sec