
  EPA STORM WATER MANAGEMENT MODEL - VERSION 5.1 (Build 5.3.0.dev0)
  --------------------------------------------------------------

  
  *********************************************************
  NOTE: The summary statistics displayed in this report are
  based on results found at every computational time step,  
  not just on results from each reporting time step.
  *********************************************************
  
  ****************
  Analysis Options
  ****************
  Flow Units ............... CMS
  Process Models:
    Rainfall/Runoff ........ YES
    RDII ................... NO
    Snowmelt ............... NO
    Groundwater ............ NO
    Flow Routing ........... YES
    Ponding Allowed ........ NO
    Water Quality .......... NO
  Infiltration Method ...... HORTON
  Flow Routing Method ...... DYNWAVE
  Surcharge Method ......... EXTRAN
  Starting Date ............ 02/20/2009 07:05:00
  Ending Date .............. 02/20/2009 17:15:00
  Antecedent Dry Days ...... 0.0
  Report Time Step ......... 00:05:00
  Wet Time Step ............ 00:05:00
  Dry Time Step ............ 01:00:00
  Routing Time Step ........ 30.00 sec
  Variable Time Step ....... YES
  Maximum Trials ........... 8
  Number of Threads ........ 1
  Head Tolerance ........... 0.001500 m
  
  
  **************************        Volume         Depth
  Runoff Quantity Continuity     hectare-m            mm
  **************************     ---------       -------
  Total Precipitation ......         1.169         6.489
  Evaporation Loss .........         0.000         0.000
  Infiltration Loss ........         0.000         0.000
  Surface Runoff ...........         1.133         6.285
  Final Storage ............         0.039         0.218
  Continuity Error (%) .....        -0.224
  
  
  **************************        Volume        Volume
  Flow Routing Continuity        hectare-m      10^6 ltr
  **************************     ---------     ---------
  Dry Weather Inflow .......         0.487         4.867
  Wet Weather Inflow .......         1.132        11.316
  Groundwater Inflow .......         0.000         0.000
  RDII Inflow ..............         0.000         0.000
  External Inflow ..........         0.000         0.000
  External Outflow .........         0.682         6.818
  Flooding Loss ............         0.020         0.195
  Evaporation Loss .........         0.000         0.000
  Exfiltration Loss ........         0.000         0.000
  Initial Stored Volume ....         0.000         0.000
  Final Stored Volume ......         0.693         6.933
  Continuity Error (%) .....        13.821
  
  
  *************************
  Highest Continuity Errors
  *************************
  Node T2 (30.42%)
  Node T4 (26.89%)
  Node T5 (23.39%)
  Node T6 (21.05%)
  Node T3 (19.50%)
  
  
  ***************************
  Time-Step Critical Elements
  ***************************
  Link C15 (60.28%)
  
  
  ********************************
  Highest Flow Instability Indexes
  ********************************
  Link C13 (5)
  Link C12 (2)
  Link C23 (2)
  Link C11 (2)
  Link C3 (2)
  
  
  *************************
  Routing Time Step Summary
  *************************
  Minimum Time Step           :     0.08 sec
  Average Time Step           :    26.54 sec
  Maximum Time Step           :    30.00 sec
  Percent in Steady State     :     1.15
  Average Iterations per Step :     2.02
  Percent Not Converging      :     0.00
  
  
  ***************************
  Subcatchment Runoff Summary
  ***************************
  
  ------------------------------------------------------------------------------------------------------------------------------
                            Total      Total      Total      Total     Imperv       Perv      Total       Total     Peak  Runoff
                           Precip      Runon       Evap      Infil     Runoff     Runoff     Runoff      Runoff   Runoff   Coeff
  Subcatchment                 mm         mm         mm         mm         mm         mm         mm    10^6 ltr      CMS
  ------------------------------------------------------------------------------------------------------------------------------
  SC01                       6.36       0.00       0.00       0.00       6.23       0.00       6.23        2.06     0.22   0.979
  SC010                      6.36       0.00       0.00       0.00       6.17       0.00       6.17        0.72     0.07   0.970
  SC02                       5.33       0.00       0.00       0.00       5.20       0.00       5.20        1.18     0.18   0.976
  SC03                       7.00       0.00       0.00       0.00       6.94       0.00       6.94        1.25     0.33   0.991
  SC04                       5.33       0.00       0.00       0.00       5.03       0.00       5.03        0.35     0.04   0.944
  SC05                       6.36       0.00       0.00       0.00       6.21       0.00       6.21        0.97     0.10   0.977
  SC06                       7.10       0.00       0.00       0.00       6.68       0.00       6.68        2.17     0.18   0.941
  SC07                       5.33       0.00       0.00       0.00       5.03       0.00       5.03        0.24     0.03   0.944
  SC08                       7.00       0.00       0.00       0.00       6.82       0.00       6.82        1.91     0.31   0.975
  SC09                       7.10       0.00       0.00       0.00       6.86       0.00       6.86        0.47     0.05   0.966
  
  
  ******************
  Node Depth Summary
  ******************
  
  ---------------------------------------------------------------------------------
                                 Average  Maximum  Maximum  Time of Max    Reported
                                   Depth    Depth      HGL   Occurrence   Max Depth
  Node                 Type       Meters   Meters   Meters  days hr:min      Meters
  ---------------------------------------------------------------------------------
  CSO10                JUNCTION     0.12     0.22    30.22     0  07:46        0.22
  CSO7                 JUNCTION     0.09     0.15    34.15     0  06:50        0.15
  CSO8                 JUNCTION     0.14     0.41    32.41     0  06:50        0.38
  CSO9                 JUNCTION     0.11     0.21    40.21     0  06:46        0.21
  J1                   JUNCTION     0.07     0.12    34.12     0  07:46        0.11
  J10                  JUNCTION     0.10     0.23    29.23     0  06:54        0.23
  J11                  JUNCTION     0.11     0.23    31.23     0  06:54        0.23
  J12                  JUNCTION     0.19     0.45    26.45     0  09:07        0.45
  J13                  JUNCTION     0.06     0.12    29.12     0  06:50        0.12
  J14                  JUNCTION     0.11     0.18    20.18     0  07:42        0.18
  J15                  JUNCTION     0.16     0.24    15.24     0  07:51        0.24
  J16                  JUNCTION     0.07     0.12    30.12     0  07:46        0.12
  J17                  JUNCTION     0.06     0.10    20.10     0  04:40        0.10
  J18                  JUNCTION     0.06     0.10    29.10     0  07:48        0.10
  J19                  JUNCTION     0.14     0.17     8.17     0  07:53        0.17
  J2                   JUNCTION     0.06     0.08    25.08     0  08:34        0.08
  J3                   JUNCTION     0.10     0.15    18.15     0  07:50        0.15
  J4                   JUNCTION     0.11     0.17    33.17     0  06:54        0.17
  J5                   JUNCTION     0.06     0.09    32.09     0  06:53        0.09
  J6                   JUNCTION     0.05     0.07    25.07     0  08:10        0.07
  J7                   JUNCTION     0.09     0.15    39.15     0  06:51        0.14
  J8                   JUNCTION     0.11     0.17    36.17     0  06:51        0.17
  J9                   JUNCTION     0.10     0.16    29.16     0  07:20        0.16
  Out_to_WWTP          OUTFALL      0.14     0.17     6.17     0  08:56        0.17
  T1                   STORAGE      2.97     5.00    15.00     0  07:52        5.00
  T2                   STORAGE      1.28     2.68    23.68     0  10:10        2.68
  T3                   STORAGE      2.09     4.45    26.45     0  09:02        4.45
  T4                   STORAGE      1.93     3.92    30.92     0  10:10        3.92
  T5                   STORAGE      2.26     4.27    31.27     0  08:32        4.27
  T6                   STORAGE      2.88     4.95    35.95     0  10:10        4.95
  
  
  *******************
  Node Inflow Summary
  *******************
  
  -------------------------------------------------------------------------------------------------
                                  Maximum  Maximum                  Lateral       Total        Flow
                                  Lateral    Total  Time of Max      Inflow      Inflow     Balance
                                   Inflow   Inflow   Occurrence      Volume      Volume       Error
  Node                 Type           CMS      CMS  days hr:min    10^6 ltr    10^6 ltr     Percent
  -------------------------------------------------------------------------------------------------
  CSO10                JUNCTION     0.076    0.076     0  07:45       0.895       0.895       0.045
  CSO7                 JUNCTION     0.037    0.037     0  06:50       0.595       0.595       0.079
  CSO8                 JUNCTION     0.322    0.322     0  06:50        2.29        2.29       0.032
  CSO9                 JUNCTION     0.058    0.058     0  06:45       0.713       0.713       0.054
  J1                   JUNCTION     0.120    0.120     0  07:45        1.66        1.66       0.041
  J10                  JUNCTION     0.344    0.576     0  06:52        1.72           4       0.100
  J11                  JUNCTION     0.000    0.321     0  06:51           0        2.29       0.290
  J12                  JUNCTION     0.000    0.634     0  06:57           0        6.62       3.281
  J13                  JUNCTION     0.200    0.200     0  06:50        1.76        1.76      -0.142
  J14                  JUNCTION     0.000    0.171     0  07:50           0        2.86       0.243
  J15                  JUNCTION     0.000    0.530     0  07:47           0        8.41       0.891
  J16                  JUNCTION     0.239    0.239     0  07:45        2.73        2.73       0.014
  J17                  JUNCTION     0.000    0.062     0  04:35           0       0.687       0.375
  J18                  JUNCTION     0.000    0.075     0  07:46           0       0.895       0.134
  J19                  JUNCTION     0.000    0.271     0  07:52           0        6.83       0.175
  J2                   JUNCTION     0.000    0.036     0  08:33           0       0.882       0.582
  J3                   JUNCTION     0.000    0.219     0  07:43           0        4.13       0.845
  J4                   JUNCTION     0.000    0.037     0  06:50           0       0.594       0.619
  J5                   JUNCTION     0.042    0.074     0  06:51       0.503        1.09       0.148
  J6                   JUNCTION     0.000    0.024     0  08:10           0       0.406       0.573
  J7                   JUNCTION     0.000    0.058     0  06:46           0       0.713       0.460
  J8                   JUNCTION     0.221    0.273     0  06:50        3.32        4.04       0.163
  J9                   JUNCTION     0.000    0.172     0  07:18           0        2.59       0.119
  Out_to_WWTP          OUTFALL      0.000    0.271     0  07:53           0        6.82       0.000
  T1                   STORAGE      0.000    0.507     0  07:51           0        8.33       9.335
  T2                   STORAGE      0.000    0.196     0  06:50           0        1.76      43.715
  T3                   STORAGE      0.000    0.618     0  06:59           0        6.41      24.221
  T4                   STORAGE      0.000    0.074     0  06:53           0        1.09      36.775
  T5                   STORAGE      0.000    0.118     0  07:46           0        1.66      30.534
  T6                   STORAGE      0.000    0.271     0  06:51           0        4.03      26.657
  
  
  **********************
  Node Surcharge Summary
  **********************
  
  No nodes were surcharged.
  
  
  *********************
  Node Flooding Summary
  *********************
  
  Flooding refers to all water that overflows a node, whether it ponds or not.
  --------------------------------------------------------------------------
                                                             Total   Maximum
                                 Maximum   Time of Max       Flood    Ponded
                        Hours       Rate    Occurrence      Volume     Depth
  Node                 Flooded       CMS   days hr:min    10^6 ltr    Meters
  --------------------------------------------------------------------------
  T1                      0.75     0.236      0  07:52       0.195     0.000
  
  
  **********************
  Storage Volume Summary
  **********************
  
  --------------------------------------------------------------------------------------------------
                         Average     Avg  Evap Exfil       Maximum     Max    Time of Max    Maximum
                          Volume    Pcnt  Pcnt  Pcnt        Volume    Pcnt     Occurrence    Outflow
  Storage Unit           1000 m3    Full  Loss  Loss       1000 m3    Full    days hr:min        CMS
  --------------------------------------------------------------------------------------------------
  T1                       0.416      59     0     0         0.700     100       0  07:52      0.271
  T2                       0.256      26     0     0         0.536      54       0  10:10      0.062
  T3                       1.089      42     0     0         2.315      89       0  09:02      0.183
  T4                       0.193      39     0     0         0.392      78       0  10:10      0.024
  T5                       0.226      45     0     0         0.427      85       0  08:32      0.036
  T6                       0.346      58     0     0         0.594      99       0  10:10      0.172
  
  
  ***********************
  Outfall Loading Summary
  ***********************
  
  -----------------------------------------------------------
                         Flow       Avg       Max       Total
                         Freq      Flow      Flow      Volume
  Outfall Node           Pcnt       CMS       CMS    10^6 ltr
  -----------------------------------------------------------
  Out_to_WWTP           99.20     0.191     0.271       6.818
  -----------------------------------------------------------
  System                99.20     0.191     0.271       6.818
  
  
  ********************
  Link Flow Summary
  ********************
  
  -----------------------------------------------------------------------------
                                 Maximum  Time of Max   Maximum    Max/    Max/
                                  |Flow|   Occurrence   |Veloc|    Full    Full
  Link                 Type          CMS  days hr:min     m/sec    Flow   Depth
  -----------------------------------------------------------------------------
  C1                   CONDUIT     0.036     0  08:35      1.01    0.01    0.11
  C10                  CONDUIT     0.271     0  06:51      1.66    0.03    0.56
  C11                  CONDUIT     0.216     0  07:50      1.69    0.01    0.10
  C12                  CONDUIT     0.172     0  07:20      1.41    0.01    0.14
  C13                  CONDUIT     0.618     0  06:59      1.38    0.04    0.61
  C14                  CONDUIT     0.271     0  07:53      2.08    0.02    0.09
  C15                  CONDUIT     0.321     0  06:51      2.74    1.02    0.68
  C16                  CONDUIT     0.296     0  06:54      1.48    0.03    0.12
  C17                  CONDUIT     0.561     0  06:54      2.67    0.03    0.13
  C18                  CONDUIT     0.196     0  06:50      3.36    0.01    0.52
  C19                  CONDUIT     0.060     0  04:40      0.89    0.02    0.14
  C2                   CONDUIT     0.024     0  08:10      1.01    0.03    0.17
  C20                  CONDUIT     0.237     0  07:46      2.34    0.01    0.09
  C21                  CONDUIT     0.075     0  07:46      1.51    0.43    0.36
  C22                  CONDUIT     0.074     0  07:49      0.98    0.03    0.21
  C23                  CONDUIT     0.507     0  07:51      1.26    0.06    0.58
  C3                   CONDUIT     0.171     0  07:43      2.19    0.07    0.16
  C4                   CONDUIT     0.118     0  07:46      3.06    0.03    0.56
  C5                   CONDUIT     0.037     0  06:50      1.23    0.63    0.62
  C6                   CONDUIT     0.035     0  06:54      1.16    0.55    0.44
  C7                   CONDUIT     0.074     0  06:53      1.44    0.02    0.55
  C8                   CONDUIT     0.058     0  06:46      1.32    0.73    0.55
  C9                   CONDUIT     0.054     0  06:52      1.01    0.18    0.32
  V1                   ORIFICE     0.271     0  07:52                      1.00
  V2                   ORIFICE     0.062     0  04:35                      1.00
  V3                   ORIFICE     0.171     0  07:50                      1.00
  V4                   ORIFICE     0.024     0  08:10                      1.00
  V5                   ORIFICE     0.036     0  08:33                      1.00
  V6                   ORIFICE     0.172     0  07:18                      1.00
  
  
  ***************************
  Flow Classification Summary
  ***************************
  
  -------------------------------------------------------------------------------------
                      Adjusted    ---------- Fraction of Time in Flow Class ---------- 
                       /Actual         Up    Down  Sub   Sup   Up    Down  Norm  Inlet 
  Conduit               Length    Dry  Dry   Dry   Crit  Crit  Crit  Crit  Ltd   Ctrl  
  -------------------------------------------------------------------------------------
  C1                      1.00   0.00  0.00  0.00  0.43  0.57  0.00  0.00  0.97  0.00
  C10                     1.00   0.00  0.00  0.00  0.97  0.03  0.00  0.00  0.98  0.00
  C11                     1.00   0.00  0.00  0.00  0.20  0.80  0.00  0.00  1.00  0.00
  C12                     1.00   0.00  0.00  0.00  0.80  0.20  0.00  0.00  0.97  0.00
  C13                     1.00   0.00  0.00  0.00  0.90  0.10  0.00  0.00  0.70  0.00
  C14                     1.00   0.00  0.00  0.00  0.01  0.99  0.00  0.00  0.34  0.00
  C15                     1.00   0.00  0.00  0.00  0.00  1.00  0.00  0.00  0.00  0.00
  C16                     1.00   0.00  0.00  0.00  0.20  0.80  0.00  0.00  0.23  0.00
  C17                     1.00   0.00  0.00  0.00  0.19  0.81  0.00  0.00  0.97  0.00
  C18                     1.00   0.00  0.00  0.00  0.80  0.20  0.00  0.00  0.98  0.00
  C19                     1.00   0.00  0.00  0.00  1.00  0.00  0.00  0.00  1.00  0.00
  C2                      1.00   0.00  0.00  0.00  0.74  0.26  0.00  0.00  0.97  0.00
  C20                     1.00   0.00  0.00  0.00  0.44  0.56  0.00  0.00  0.99  0.00
  C21                     1.00   0.00  0.00  0.00  0.00  1.00  0.00  0.00  0.00  0.00
  C22                     1.00   0.00  0.00  0.00  0.98  0.02  0.00  0.00  1.00  0.00
  C23                     1.00   0.00  0.00  0.00  0.93  0.07  0.00  0.00  0.96  0.00
  C3                      1.00   0.00  0.00  0.00  0.04  0.95  0.00  0.00  0.31  0.00
  C4                      1.00   0.00  0.00  0.00  0.97  0.03  0.00  0.00  0.98  0.00
  C5                      1.00   0.00  0.00  0.00  0.91  0.09  0.00  0.00  0.99  0.00
  C6                      1.00   0.00  0.00  0.00  0.01  0.99  0.00  0.00  0.00  0.00
  C7                      1.00   0.00  0.00  0.00  0.94  0.06  0.00  0.00  0.97  0.00
  C8                      1.00   0.00  0.00  0.00  0.00  1.00  0.00  0.00  0.00  0.00
  C9                      1.00   0.00  0.00  0.00  1.00  0.00  0.00  0.00  1.00  0.00
  
  
  *************************
  Conduit Surcharge Summary
  *************************
  
  ----------------------------------------------------------------------------
                                                           Hours        Hours 
                         --------- Hours Full --------   Above Full   Capacity
  Conduit                Both Ends  Upstream  Dnstream   Normal Flow   Limited
  ----------------------------------------------------------------------------
  C10                         0.01      0.01      6.65      0.01         0.01
  C13                         0.01      0.01      4.58      0.01         0.01
  C15                         0.01      0.01      0.01      0.03         0.01
  C18                         0.01      0.01      3.15      0.01         0.01
  C23                         0.01      0.01      7.24      0.01         0.01
  C4                          0.01      0.01      7.35      0.01         0.01
  C7                          0.01      0.01      6.55      0.01         0.01
  

  Analysis begun on:  Sun Jul 17 21:20:37 2022
  Analysis ended on:  Sun Jul 17 21:20:39 2022
  Total elapsed time: 00:00:02