
  EPA STORM WATER MANAGEMENT MODEL - VERSION 5.1 (Build 5.3.0.dev0)
  --------------------------------------------------------------

  
  *********************************************************
  NOTE: The summary statistics displayed in this report are
  based on results found at every computational time step,  
  not just on results from each reporting time step.
  *********************************************************
  
  ****************
  Analysis Options
  ****************
  Flow Units ............... CMS
  Process Models:
    Rainfall/Runoff ........ YES
    RDII ................... NO
    Snowmelt ............... NO
    Groundwater ............ NO
    Flow Routing ........... YES
    Ponding Allowed ........ NO
    Water Quality .......... NO
  Infiltration Method ...... HORTON
  Flow Routing Method ...... DYNWAVE
  Surcharge Method ......... EXTRAN
  Starting Date ............ 04/27/2009 01:50:00
  Ending Date .............. 04/27/2009 12:00:00
  Antecedent Dry Days ...... 0.0
  Report Time Step ......... 00:05:00
  Wet Time Step ............ 00:05:00
  Dry Time Step ............ 01:00:00
  Routing Time Step ........ 30.00 sec
  Variable Time Step ....... YES
  Maximum Trials ........... 8
  Number of Threads ........ 1
  Head Tolerance ........... 0.001500 m
  
  
  **************************        Volume         Depth
  Runoff Quantity Continuity     hectare-m            mm
  **************************     ---------       -------
  Total Precipitation ......         2.153        11.948
  Evaporation Loss .........         0.000         0.000
  Infiltration Loss ........         0.000         0.000
  Surface Runoff ...........         2.113        11.726
  Final Storage ............         0.042         0.231
  Continuity Error (%) .....        -0.071
  
  
  **************************        Volume        Volume
  Flow Routing Continuity        hectare-m      10^6 ltr
  **************************     ---------     ---------
  Dry Weather Inflow .......         0.336         3.359
  Wet Weather Inflow .......         2.112        21.122
  Groundwater Inflow .......         0.000         0.000
  RDII Inflow ..............         0.000         0.000
  External Inflow ..........         0.000         0.000
  External Outflow .........         0.673         6.732
  Flooding Loss ............         0.610         6.101
  Evaporation Loss .........         0.000         0.000
  Exfiltration Loss ........         0.000         0.000
  Initial Stored Volume ....         0.000         0.000
  Final Stored Volume ......         0.862         8.618
  Continuity Error (%) .....        12.377
  
  
  *************************
  Highest Continuity Errors
  *************************
  Node T2 (28.52%)
  Node T5 (21.05%)
  Node T4 (18.14%)
  Node T3 (17.60%)
  Node T6 (14.72%)
  
  
  ***************************
  Time-Step Critical Elements
  ***************************
  Link C15 (59.02%)
  
  
  ********************************
  Highest Flow Instability Indexes
  ********************************
  Link C13 (4)
  Link C23 (3)
  Link C20 (2)
  Link C4 (2)
  Link C19 (2)
  
  
  *************************
  Routing Time Step Summary
  *************************
  Minimum Time Step           :     0.21 sec
  Average Time Step           :    24.61 sec
  Maximum Time Step           :    30.00 sec
  Percent in Steady State     :    10.24
  Average Iterations per Step :     2.01
  Percent Not Converging      :     0.00
  
  
  ***************************
  Subcatchment Runoff Summary
  ***************************
  
  ------------------------------------------------------------------------------------------------------------------------------
                            Total      Total      Total      Total     Imperv       Perv      Total       Total     Peak  Runoff
                           Precip      Runon       Evap      Infil     Runoff     Runoff     Runoff      Runoff   Runoff   Coeff
  Subcatchment                 mm         mm         mm         mm         mm         mm         mm    10^6 ltr      CMS
  ------------------------------------------------------------------------------------------------------------------------------
  SC01                      11.23       0.00       0.00       0.00      11.10       0.00      11.10        3.66     0.34   0.988
  SC010                     11.23       0.00       0.00       0.00      11.04       0.00      11.04        1.30     0.11   0.983
  SC02                      13.80       0.00       0.00       0.00      13.65       0.00      13.65        3.11     0.29   0.989
  SC03                      10.98       0.00       0.00       0.00      10.89       0.00      10.89        1.96     0.21   0.991
  SC04                      13.80       0.00       0.00       0.00      13.43       0.00      13.43        0.93     0.07   0.973
  SC05                      11.23       0.00       0.00       0.00      11.08       0.00      11.08        1.73     0.16   0.987
  SC06                      12.56       0.00       0.00       0.00      12.12       0.00      12.12        3.95     0.28   0.965
  SC07                      13.80       0.00       0.00       0.00      13.43       0.00      13.43        0.64     0.05   0.973
  SC08                      10.98       0.00       0.00       0.00      10.78       0.00      10.78        3.02     0.29   0.981
  SC09                      12.56       0.00       0.00       0.00      12.31       0.00      12.31        0.85     0.06   0.980
  
  
  ******************
  Node Depth Summary
  ******************
  
  ---------------------------------------------------------------------------------
                                 Average  Maximum  Maximum  Time of Max    Reported
                                   Depth    Depth      HGL   Occurrence   Max Depth
  Node                 Type       Meters   Meters   Meters  days hr:min      Meters
  ---------------------------------------------------------------------------------
  CSO10                JUNCTION     0.15     0.28    30.28     0  04:25        0.28
  CSO7                 JUNCTION     0.12     0.20    34.20     0  04:50        0.20
  CSO8                 JUNCTION     0.16     0.37    32.37     0  04:45        0.37
  CSO9                 JUNCTION     0.14     0.24    40.24     0  05:11        0.24
  J1                   JUNCTION     0.08     0.14    34.14     0  04:25        0.14
  J10                  JUNCTION     0.11     0.22    29.22     0  04:45        0.22
  J11                  JUNCTION     0.12     0.24    31.24     0  04:46        0.24
  J12                  JUNCTION     0.43     1.01    27.01     0  07:19        1.01
  J13                  JUNCTION     0.08     0.15    29.15     0  04:46        0.15
  J14                  JUNCTION     0.11     0.19    20.19     0  07:17        0.19
  J15                  JUNCTION     0.18     0.26    15.26     0  08:00        0.26
  J16                  JUNCTION     0.08     0.15    30.15     0  04:25        0.15
  J17                  JUNCTION     0.07     0.15    20.15     0  06:36        0.15
  J18                  JUNCTION     0.07     0.12    29.12     0  04:27        0.12
  J19                  JUNCTION     0.14     0.17     8.17     0  04:57        0.17
  J2                   JUNCTION     0.06     0.08    25.08     0  08:05        0.08
  J3                   JUNCTION     0.10     0.17    18.17     0  06:15        0.17
  J4                   JUNCTION     0.14     0.24    33.24     0  04:52        0.24
  J5                   JUNCTION     0.08     0.12    32.12     0  04:51        0.12
  J6                   JUNCTION     0.06     0.12    25.12     0  06:30        0.12
  J7                   JUNCTION     0.10     0.16    39.16     0  05:12        0.16
  J8                   JUNCTION     0.13     0.20    36.20     0  05:13        0.20
  J9                   JUNCTION     0.11     0.16    29.16     0  08:09        0.16
  Out_to_WWTP          OUTFALL      0.14     0.17     6.17     0  09:20        0.17
  T1                   STORAGE      3.36     5.00    15.00     0  04:55        5.00
  T2                   STORAGE      2.71     5.00    26.00     0  09:45        5.00
  T3                   STORAGE      2.59     5.00    27.00     0  07:19        5.00
  T4                   STORAGE      2.86     5.00    32.00     0  06:19        5.00
  T5                   STORAGE      3.00     5.00    32.00     0  06:28        5.00
  T6                   STORAGE      2.85     5.00    36.00     0  05:51        5.00
  
  
  *******************
  Node Inflow Summary
  *******************
  
  -------------------------------------------------------------------------------------------------
                                  Maximum  Maximum                  Lateral       Total        Flow
                                  Lateral    Total  Time of Max      Inflow      Inflow     Balance
                                   Inflow   Inflow   Occurrence      Volume      Volume       Error
  Node                 Type           CMS      CMS  days hr:min    10^6 ltr    10^6 ltr     Percent
  -------------------------------------------------------------------------------------------------
  CSO10                JUNCTION     0.113    0.113     0  04:25        1.42        1.42      -0.062
  CSO7                 JUNCTION     0.057    0.057     0  04:50       0.886       0.885       0.005
  CSO8                 JUNCTION     0.305    0.305     0  04:45        3.24        3.21      -0.011
  CSO9                 JUNCTION     0.068    0.068     0  05:10        1.02        1.03      -0.164
  J1                   JUNCTION     0.172    0.172     0  04:25        2.21        2.21      -0.054
  J10                  JUNCTION     0.217    0.510     0  04:45        2.29        5.47      -0.005
  J11                  JUNCTION     0.000    0.304     0  04:45           0        3.21       0.037
  J12                  JUNCTION     0.000    0.580     0  04:40           0        8.67      10.428
  J13                  JUNCTION     0.306    0.306     0  04:45         3.5        3.49      -0.253
  J14                  JUNCTION     0.000    0.190     0  07:56           0        2.83       0.249
  J15                  JUNCTION     0.000    0.620     0  06:20           0        11.4       1.003
  J16                  JUNCTION     0.358    0.358     0  04:25        4.13        4.14      -0.106
  J17                  JUNCTION     0.000    0.138     0  08:20           0        1.49       0.768
  J18                  JUNCTION     0.000    0.112     0  04:25           0        1.42      -0.133
  J19                  JUNCTION     0.000    0.271     0  04:56           0        6.74       0.185
  J2                   JUNCTION     0.000    0.039     0  06:28           0       0.933       0.599
  J3                   JUNCTION     0.000    0.292     0  06:15           0        4.41       1.112
  J4                   JUNCTION     0.000    0.057     0  04:50           0       0.885       0.290
  J5                   JUNCTION     0.075    0.130     0  04:50        1.04        1.92      -0.020
  J6                   JUNCTION     0.000    0.080     0  06:25           0       0.667       0.022
  J7                   JUNCTION     0.000    0.068     0  05:11           0        1.03      -0.464
  J8                   JUNCTION     0.305    0.372     0  05:10        4.75        5.85      -0.258
  J9                   JUNCTION     0.000    0.175     0  05:52           0         3.2       0.093
  Out_to_WWTP          OUTFALL      0.000    0.271     0  04:57           0        6.73       0.000
  T1                   STORAGE      0.000    0.606     0  08:00           0        11.3       7.665
  T2                   STORAGE      0.000    0.304     0  04:46           0         3.5      39.894
  T3                   STORAGE      0.000    0.569     0  04:41           0        7.85      21.358
  T4                   STORAGE      0.000    0.130     0  04:51           0        1.92      22.162
  T5                   STORAGE      0.000    0.169     0  04:26           0        2.21      26.658
  T6                   STORAGE      0.000    0.371     0  05:13           0        5.86      17.259
  
  
  **********************
  Node Surcharge Summary
  **********************
  
  No nodes were surcharged.
  
  
  *********************
  Node Flooding Summary
  *********************
  
  Flooding refers to all water that overflows a node, whether it ponds or not.
  --------------------------------------------------------------------------
                                                             Total   Maximum
                                 Maximum   Time of Max       Flood    Ponded
                        Hours       Rate    Occurrence      Volume     Depth
  Node                 Flooded       CMS   days hr:min    10^6 ltr    Meters
  --------------------------------------------------------------------------
  T1                      4.19     0.336      0  08:01       3.066     0.000
  T2                      0.42     0.010      0  09:45       0.014     0.000
  T3                      1.76     0.327      0  08:00       1.055     0.000
  T4                      2.93     0.067      0  06:19       0.424     0.000
  T5                      2.12     0.063      0  06:28       0.337     0.000
  T6                      2.35     0.185      0  06:59       1.204     0.000
  
  
  **********************
  Storage Volume Summary
  **********************
  
  --------------------------------------------------------------------------------------------------
                         Average     Avg  Evap Exfil       Maximum     Max    Time of Max    Maximum
                          Volume    Pcnt  Pcnt  Pcnt        Volume    Pcnt     Occurrence    Outflow
  Storage Unit           1000 m3    Full  Loss  Loss       1000 m3    Full    days hr:min        CMS
  --------------------------------------------------------------------------------------------------
  T1                       0.471      67     0     0         0.700     100       0  04:55      0.271
  T2                       0.542      54     0     0         1.000     100       0  09:45      0.138
  T3                       1.348      52     0     0         2.600     100       0  07:19      0.190
  T4                       0.286      57     0     0         0.500     100       0  06:19      0.080
  T5                       0.300      60     0     0         0.500     100       0  06:28      0.039
  T6                       0.342      57     0     0         0.600     100       0  05:51      0.175
  
  
  ***********************
  Outfall Loading Summary
  ***********************
  
  -----------------------------------------------------------
                         Flow       Avg       Max       Total
                         Freq      Flow      Flow      Volume
  Outfall Node           Pcnt       CMS       CMS    10^6 ltr
  -----------------------------------------------------------
  Out_to_WWTP           98.66     0.199     0.271       6.732
  -----------------------------------------------------------
  System                98.66     0.199     0.271       6.732
  
  
  ********************
  Link Flow Summary
  ********************
  
  -----------------------------------------------------------------------------
                                 Maximum  Time of Max   Maximum    Max/    Max/
                                  |Flow|   Occurrence   |Veloc|    Full    Full
  Link                 Type          CMS  days hr:min     m/sec    Flow   Depth
  -----------------------------------------------------------------------------
  C1                   CONDUIT     0.039     0  07:09      1.03    0.01    0.12
  C10                  CONDUIT     0.371     0  05:13      2.35    0.04    0.57
  C11                  CONDUIT     0.285     0  06:15      1.91    0.01    0.10
  C12                  CONDUIT     0.175     0  07:01      1.09    0.01    0.29
  C13                  CONDUIT     0.569     0  04:41      1.13    0.03    0.75
  C14                  CONDUIT     0.271     0  04:57      2.08    0.02    0.09
  C15                  CONDUIT     0.304     0  04:45      2.64    0.97    0.67
  C16                  CONDUIT     0.301     0  04:46      1.53    0.03    0.11
  C17                  CONDUIT     0.507     0  04:45      2.49    0.03    0.29
  C18                  CONDUIT     0.304     0  04:46      1.17    0.01    0.54
  C19                  CONDUIT     0.137     0  06:36      1.36    0.05    0.21
  C2                   CONDUIT     0.079     0  06:30      1.80    0.09    0.24
  C20                  CONDUIT     0.352     0  04:26      2.20    0.01    0.10
  C21                  CONDUIT     0.112     0  04:25      1.67    0.64    0.45
  C22                  CONDUIT     0.109     0  04:28      1.23    0.05    0.23
  C23                  CONDUIT     0.606     0  08:00      1.07    0.07    0.59
  C3                   CONDUIT     0.191     0  07:17      2.17    0.07    0.17
  C4                   CONDUIT     0.169     0  04:26      1.11    0.04    0.57
  C5                   CONDUIT     0.057     0  04:50      1.24    0.97    0.86
  C6                   CONDUIT     0.056     0  04:53      1.25    0.89    0.60
  C7                   CONDUIT     0.130     0  04:51      0.83    0.03    0.56
  C8                   CONDUIT     0.068     0  05:11      1.74    0.86    0.63
  C9                   CONDUIT     0.068     0  05:13      1.05    0.23    0.36
  V1                   ORIFICE     0.271     0  04:56                      1.00
  V2                   ORIFICE     0.138     0  08:20                      1.00
  V3                   ORIFICE     0.190     0  07:56                      1.00
  V4                   ORIFICE     0.080     0  06:25                      1.00
  V5                   ORIFICE     0.039     0  06:28                      1.00
  V6                   ORIFICE     0.175     0  05:52                      1.00
  
  
  ***************************
  Flow Classification Summary
  ***************************
  
  -------------------------------------------------------------------------------------
                      Adjusted    ---------- Fraction of Time in Flow Class ---------- 
                       /Actual         Up    Down  Sub   Sup   Up    Down  Norm  Inlet 
  Conduit               Length    Dry  Dry   Dry   Crit  Crit  Crit  Crit  Ltd   Ctrl  
  -------------------------------------------------------------------------------------
  C1                      1.00   0.00  0.00  0.00  0.29  0.71  0.00  0.00  0.92  0.00
  C10                     1.00   0.00  0.00  0.00  0.94  0.06  0.00  0.00  0.96  0.00
  C11                     1.00   0.00  0.00  0.00  0.53  0.47  0.00  0.00  1.00  0.00
  C12                     1.00   0.00  0.00  0.00  0.96  0.03  0.00  0.00  0.99  0.00
  C13                     1.00   0.00  0.00  0.00  0.74  0.26  0.00  0.00  0.37  0.00
  C14                     1.00   0.01  0.00  0.00  0.01  0.98  0.00  0.00  0.17  0.00
  C15                     1.00   0.11  0.00  0.00  0.00  0.89  0.00  0.00  0.00  0.00
  C16                     1.00   0.00  0.11  0.00  0.21  0.67  0.00  0.00  0.26  0.00
  C17                     1.00   0.00  0.00  0.00  0.47  0.53  0.00  0.00  0.98  0.00
  C18                     1.00   0.00  0.00  0.00  0.83  0.17  0.00  0.00  0.94  0.00
  C19                     1.00   0.00  0.00  0.00  0.81  0.19  0.00  0.00  1.00  0.00
  C2                      1.00   0.00  0.00  0.00  0.52  0.48  0.00  0.00  0.99  0.00
  C20                     1.00   0.00  0.00  0.00  0.23  0.77  0.00  0.00  0.99  0.00
  C21                     1.00   0.00  0.00  0.00  0.00  1.00  0.00  0.00  0.00  0.00
  C22                     1.00   0.00  0.00  0.00  0.89  0.11  0.00  0.00  1.00  0.00
  C23                     1.00   0.00  0.00  0.00  0.85  0.15  0.00  0.00  0.90  0.00
  C3                      1.00   0.00  0.01  0.00  0.09  0.90  0.00  0.00  0.48  0.00
  C4                      1.00   0.00  0.00  0.00  0.87  0.13  0.00  0.00  0.95  0.00
  C5                      1.00   0.00  0.00  0.00  0.82  0.18  0.00  0.00  0.98  0.00
  C6                      1.00   0.00  0.00  0.00  0.01  0.99  0.00  0.00  0.00  0.00
  C7                      1.00   0.00  0.00  0.00  0.83  0.17  0.00  0.00  0.91  0.00
  C8                      1.00   0.00  0.00  0.00  0.12  0.88  0.00  0.00  0.00  0.00
  C9                      1.00   0.00  0.00  0.00  1.00  0.00  0.00  0.00  1.00  0.00
  
  
  *************************
  Conduit Surcharge Summary
  *************************
  
  ----------------------------------------------------------------------------
                                                           Hours        Hours 
                         --------- Hours Full --------   Above Full   Capacity
  Conduit                Both Ends  Upstream  Dnstream   Normal Flow   Limited
  ----------------------------------------------------------------------------
  C10                         0.01      0.01      5.60      0.01         0.01
  C13                         0.01      0.01      5.27      0.01         0.01
  C18                         0.01      0.01      5.38      0.01         0.01
  C23                         0.01      0.01      6.72      0.01         0.01
  C4                          0.01      0.01      6.82      0.01         0.01
  C7                          0.01      0.01      6.53      0.01         0.01
  

  Analysis begun on:  Sun Jul 17 21:28:41 2022
  Analysis ended on:  Sun Jul 17 21:28:43 2022
  Total elapsed time: 00:00:02