
  EPA STORM WATER MANAGEMENT MODEL - VERSION 5.1 (Build 5.3.0.dev0)
  --------------------------------------------------------------

  
  *********************************************************
  NOTE: The summary statistics displayed in this report are
  based on results found at every computational time step,  
  not just on results from each reporting time step.
  *********************************************************
  
  ****************
  Analysis Options
  ****************
  Flow Units ............... CMS
  Process Models:
    Rainfall/Runoff ........ YES
    RDII ................... NO
    Snowmelt ............... NO
    Groundwater ............ NO
    Flow Routing ........... YES
    Ponding Allowed ........ NO
    Water Quality .......... NO
  Infiltration Method ...... HORTON
  Flow Routing Method ...... DYNWAVE
  Surcharge Method ......... EXTRAN
  Starting Date ............ 01/18/2009 00:20:00
  Ending Date .............. 01/18/2009 19:30:00
  Antecedent Dry Days ...... 0.0
  Report Time Step ......... 00:05:00
  Wet Time Step ............ 00:05:00
  Dry Time Step ............ 01:00:00
  Routing Time Step ........ 30.00 sec
  Variable Time Step ....... YES
  Maximum Trials ........... 8
  Number of Threads ........ 1
  Head Tolerance ........... 0.001500 m
  
  
  **************************        Volume         Depth
  Runoff Quantity Continuity     hectare-m            mm
  **************************     ---------       -------
  Total Precipitation ......         2.247        12.467
  Evaporation Loss .........         0.000         0.000
  Infiltration Loss ........         0.000         0.000
  Surface Runoff ...........         2.213        12.279
  Final Storage ............         0.035         0.194
  Continuity Error (%) .....        -0.046
  
  
  **************************        Volume        Volume
  Flow Routing Continuity        hectare-m      10^6 ltr
  **************************     ---------     ---------
  Dry Weather Inflow .......         0.674         6.741
  Wet Weather Inflow .......         2.212        22.123
  Groundwater Inflow .......         0.000         0.000
  RDII Inflow ..............         0.000         0.000
  External Inflow ..........         0.000         0.000
  External Outflow .........         1.515        15.153
  Flooding Loss ............         0.275         2.749
  Evaporation Loss .........         0.000         0.000
  Exfiltration Loss ........         0.000         0.000
  Initial Stored Volume ....         0.000         0.000
  Final Stored Volume ......         0.822         8.225
  Continuity Error (%) .....         9.482
  
  
  *************************
  Highest Continuity Errors
  *************************
  Node T2 (28.77%)
  Node T4 (18.37%)
  Node T5 (16.43%)
  Node T6 (11.48%)
  Node T3 (11.11%)
  
  
  ***************************
  Time-Step Critical Elements
  ***************************
  Link C15 (60.28%)
  
  
  ********************************
  Highest Flow Instability Indexes
  ********************************
  Link C13 (7)
  Link C15 (4)
  Link C11 (4)
  Link C20 (4)
  Link C2 (3)
  
  
  *************************
  Routing Time Step Summary
  *************************
  Minimum Time Step           :     0.03 sec
  Average Time Step           :    26.96 sec
  Maximum Time Step           :    30.00 sec
  Percent in Steady State     :    12.47
  Average Iterations per Step :     2.02
  Percent Not Converging      :     0.00
  
  
  ***************************
  Subcatchment Runoff Summary
  ***************************
  
  ------------------------------------------------------------------------------------------------------------------------------
                            Total      Total      Total      Total     Imperv       Perv      Total       Total     Peak  Runoff
                           Precip      Runon       Evap      Infil     Runoff     Runoff     Runoff      Runoff   Runoff   Coeff
  Subcatchment                 mm         mm         mm         mm         mm         mm         mm    10^6 ltr      CMS
  ------------------------------------------------------------------------------------------------------------------------------
  SC01                      12.78       0.00       0.00       0.00      12.66       0.00      12.66        4.18     0.12   0.990
  SC010                     12.78       0.00       0.00       0.00      12.61       0.00      12.61        1.48     0.04   0.987
  SC02                      12.77       0.00       0.00       0.00      12.67       0.00      12.67        2.88     0.09   0.992
  SC03                      12.00       0.00       0.00       0.00      11.93       0.00      11.93        2.15     0.07   0.994
  SC04                      12.77       0.00       0.00       0.00      12.57       0.00      12.57        0.87     0.03   0.984
  SC05                      12.78       0.00       0.00       0.00      12.65       0.00      12.65        1.97     0.06   0.989
  SC06                      12.27       0.00       0.00       0.00      11.83       0.00      11.83        3.85     0.14   0.964
  SC07                      12.77       0.00       0.00       0.00      12.57       0.00      12.57        0.60     0.02   0.984
  SC08                      12.00       0.00       0.00       0.00      11.87       0.00      11.87        3.32     0.10   0.989
  SC09                      12.27       0.00       0.00       0.00      12.01       0.00      12.01        0.83     0.04   0.979
  
  
  ******************
  Node Depth Summary
  ******************
  
  ---------------------------------------------------------------------------------
                                 Average  Maximum  Maximum  Time of Max    Reported
                                   Depth    Depth      HGL   Occurrence   Max Depth
  Node                 Type       Meters   Meters   Meters  days hr:min      Meters
  ---------------------------------------------------------------------------------
  CSO10                JUNCTION     0.12     0.17    30.17     0  06:10        0.17
  CSO7                 JUNCTION     0.09     0.12    34.12     0  10:20        0.12
  CSO8                 JUNCTION     0.13     0.19    32.19     0  06:00        0.19
  CSO9                 JUNCTION     0.10     0.17    40.17     0  16:45        0.17
  J1                   JUNCTION     0.07     0.09    34.09     0  06:11        0.09
  J10                  JUNCTION     0.10     0.14    29.14     0  06:02        0.14
  J11                  JUNCTION     0.10     0.15    31.15     0  06:02        0.15
  J12                  JUNCTION     0.53     1.02    27.02     0  15:47        1.01
  J13                  JUNCTION     0.06     0.09    29.09     0  04:46        0.09
  J14                  JUNCTION     0.12     0.19    20.19     0  10:32        0.19
  J15                  JUNCTION     0.17     0.24    15.24     0  10:46        0.23
  J16                  JUNCTION     0.07     0.09    30.09     0  06:10        0.09
  J17                  JUNCTION     0.06     0.14    20.14     0  10:45        0.14
  J18                  JUNCTION     0.06     0.08    29.08     0  06:12        0.08
  J19                  JUNCTION     0.15     0.17     8.17     0  10:58        0.17
  J2                   JUNCTION     0.07     0.08    25.08     0  13:30        0.08
  J3                   JUNCTION     0.11     0.17    18.17     0  10:45        0.17
  J4                   JUNCTION     0.11     0.14    33.14     0  10:21        0.14
  J5                   JUNCTION     0.06     0.08    32.08     0  06:05        0.08
  J6                   JUNCTION     0.06     0.12    25.12     0  13:51        0.12
  J7                   JUNCTION     0.08     0.12    39.12     0  17:00        0.12
  J8                   JUNCTION     0.10     0.15    36.15     0  17:00        0.15
  J9                   JUNCTION     0.10     0.16    29.16     0  16:45        0.16
  Out_to_WWTP          OUTFALL      0.15     0.17     6.17     0  06:12        0.17
  T1                   STORAGE      3.82     5.00    15.00     0  06:12        5.00
  T2                   STORAGE      3.08     5.00    26.00     0  14:49        5.00
  T3                   STORAGE      3.35     5.00    27.00     0  11:54        5.00
  T4                   STORAGE      3.01     4.96    31.96     0  13:40        4.96
  T5                   STORAGE      3.31     5.00    32.00     0  13:28        5.00
  T6                   STORAGE      3.06     5.00    36.00     0  17:15        5.00
  
  
  *******************
  Node Inflow Summary
  *******************
  
  -------------------------------------------------------------------------------------------------
                                  Maximum  Maximum                  Lateral       Total        Flow
                                  Lateral    Total  Time of Max      Inflow      Inflow     Balance
                                   Inflow   Inflow   Occurrence      Volume      Volume       Error
  Node                 Type           CMS      CMS  days hr:min    10^6 ltr    10^6 ltr     Percent
  -------------------------------------------------------------------------------------------------
  CSO10                JUNCTION     0.047    0.047     0  06:10        1.72        1.73      -0.147
  CSO7                 JUNCTION     0.025    0.025     0  10:20         1.1         1.1      -0.131
  CSO8                 JUNCTION     0.113    0.113     0  06:00        3.77        3.78      -0.195
  CSO9                 JUNCTION     0.040    0.040     0  16:45        1.17        1.17      -0.018
  J1                   JUNCTION     0.073    0.073     0  06:10        2.94        2.95      -0.165
  J10                  JUNCTION     0.077    0.189     0  06:00        2.81        6.62      -0.400
  J11                  JUNCTION     0.000    0.113     0  06:00           0        3.79      -0.385
  J12                  JUNCTION     0.000    0.290     0  07:04           0        11.9       8.167
  J13                  JUNCTION     0.099    0.099     0  04:45        3.69        3.68      -0.438
  J14                  JUNCTION     0.000    0.190     0  11:55           0        6.44      -0.262
  J15                  JUNCTION     0.000    0.545     0  10:45           0        18.2       0.260
  J16                  JUNCTION     0.138    0.138     0  06:10        5.13        5.15      -0.196
  J17                  JUNCTION     0.000    0.133     0  10:40           0        1.56       1.062
  J18                  JUNCTION     0.000    0.047     0  06:10           0        1.73      -0.042
  J19                  JUNCTION     0.000    0.271     0  06:13           0        15.2       0.078
  J2                   JUNCTION     0.000    0.039     0  13:28           0        2.05       0.271
  J3                   JUNCTION     0.000    0.307     0  15:10           0        9.85       0.517
  J4                   JUNCTION     0.000    0.025     0  10:20           0         1.1       0.048
  J5                   JUNCTION     0.029    0.054     0  06:05        1.09        2.18      -0.147
  J6                   JUNCTION     0.000    0.079     0  13:46           0        1.36       0.457
  J7                   JUNCTION     0.000    0.040     0  16:45           0        1.17       0.412
  J8                   JUNCTION     0.161    0.192     0  16:58        5.46        6.65       0.083
  J9                   JUNCTION     0.000    0.171     0  16:30           0         5.2      -0.984
  Out_to_WWTP          OUTFALL      0.000    0.271     0  10:58           0        15.2       0.000
  T1                   STORAGE      0.000    0.491     0  10:46           0        18.2       3.734
  T2                   STORAGE      0.000    0.099     0  04:46           0         3.7      40.393
  T3                   STORAGE      0.000    0.428     0  11:18           0          11      12.499
  T4                   STORAGE      0.000    0.054     0  05:57           0        2.19      22.504
  T5                   STORAGE      0.000    0.072     0  06:11           0        2.95      19.661
  T6                   STORAGE      0.000    0.190     0  17:00           0        6.64      12.974
  
  
  **********************
  Node Surcharge Summary
  **********************
  
  No nodes were surcharged.
  
  
  *********************
  Node Flooding Summary
  *********************
  
  Flooding refers to all water that overflows a node, whether it ponds or not.
  --------------------------------------------------------------------------
                                                             Total   Maximum
                                 Maximum   Time of Max       Flood    Ponded
                        Hours       Rate    Occurrence      Volume     Depth
  Node                 Flooded       CMS   days hr:min    10^6 ltr    Meters
  --------------------------------------------------------------------------
  T1                      5.22     0.157      0  11:47       1.771     0.000
  T2                      1.69     0.030      0  15:20       0.076     0.000
  T3                      3.11     0.264      0  14:49       0.798     0.000
  T6                      0.82     0.088      0  17:15       0.104     0.000
  
  
  **********************
  Storage Volume Summary
  **********************
  
  --------------------------------------------------------------------------------------------------
                         Average     Avg  Evap Exfil       Maximum     Max    Time of Max    Maximum
                          Volume    Pcnt  Pcnt  Pcnt        Volume    Pcnt     Occurrence    Outflow
  Storage Unit           1000 m3    Full  Loss  Loss       1000 m3    Full    days hr:min        CMS
  --------------------------------------------------------------------------------------------------
  T1                       0.535      76     0     0         0.700     100       0  06:12      0.271
  T2                       0.615      62     0     0         1.000     100       0  14:49      0.133
  T3                       1.743      67     0     0         2.600     100       0  11:54      0.255
  T4                       0.301      60     0     0         0.496      99       0  13:40      0.079
  T5                       0.331      66     0     0         0.500     100       0  13:28      0.039
  T6                       0.367      61     0     0         0.600     100       0  17:15      0.171
  
  
  ***********************
  Outfall Loading Summary
  ***********************
  
  -----------------------------------------------------------
                         Flow       Avg       Max       Total
                         Freq      Flow      Flow      Volume
  Outfall Node           Pcnt       CMS       CMS    10^6 ltr
  -----------------------------------------------------------
  Out_to_WWTP           99.17     0.223     0.271      15.153
  -----------------------------------------------------------
  System                99.17     0.223     0.271      15.153
  
  
  ********************
  Link Flow Summary
  ********************
  
  -----------------------------------------------------------------------------
                                 Maximum  Time of Max   Maximum    Max/    Max/
                                  |Flow|   Occurrence   |Veloc|    Full    Full
  Link                 Type          CMS  days hr:min     m/sec    Flow   Depth
  -----------------------------------------------------------------------------
  C1                   CONDUIT     0.039     0  13:30      1.06    0.01    0.12
  C10                  CONDUIT     0.190     0  17:00      2.35    0.02    0.55
  C11                  CONDUIT     0.296     0  10:45      1.95    0.01    0.10
  C12                  CONDUIT     0.167     0  16:45      1.21    0.01    0.29
  C13                  CONDUIT     0.428     0  11:18      1.08    0.03    0.75
  C14                  CONDUIT     0.271     0  10:58      2.08    0.02    0.09
  C15                  CONDUIT     0.113     0  06:00      2.03    0.36    0.38
  C16                  CONDUIT     0.112     0  06:03      1.13    0.01    0.07
  C17                  CONDUIT     0.188     0  06:03      1.83    0.01    0.28
  C18                  CONDUIT     0.099     0  04:46      1.00    0.00    0.52
  C19                  CONDUIT     0.131     0  10:45      1.28    0.05    0.19
  C2                   CONDUIT     0.079     0  13:51      1.63    0.09    0.24
  C20                  CONDUIT     0.138     0  06:11      1.45    0.00    0.08
  C21                  CONDUIT     0.047     0  06:10      1.31    0.27    0.28
  C22                  CONDUIT     0.047     0  06:12      0.86    0.02    0.19
  C23                  CONDUIT     0.491     0  10:46      1.02    0.05    0.58
  C3                   CONDUIT     0.194     0  15:08      2.27    0.07    0.18
  C4                   CONDUIT     0.072     0  06:11      1.11    0.02    0.55
  C5                   CONDUIT     0.025     0  10:20      1.24    0.43    0.51
  C6                   CONDUIT     0.025     0  10:21      1.06    0.40    0.37
  C7                   CONDUIT     0.054     0  05:57      0.83    0.01    0.54
  C8                   CONDUIT     0.040     0  16:45      1.74    0.50    0.45
  C9                   CONDUIT     0.037     0  17:00      0.88    0.13    0.26
  V1                   ORIFICE     0.271     0  06:13                      1.00
  V2                   ORIFICE     0.133     0  10:40                      1.00
  V3                   ORIFICE     0.190     0  11:55                      1.00
  V4                   ORIFICE     0.079     0  13:46                      1.00
  V5                   ORIFICE     0.039     0  13:28                      1.00
  V6                   ORIFICE     0.171     0  16:30                      1.00
  
  
  ***************************
  Flow Classification Summary
  ***************************
  
  -------------------------------------------------------------------------------------
                      Adjusted    ---------- Fraction of Time in Flow Class ---------- 
                       /Actual         Up    Down  Sub   Sup   Up    Down  Norm  Inlet 
  Conduit               Length    Dry  Dry   Dry   Crit  Crit  Crit  Crit  Ltd   Ctrl  
  -------------------------------------------------------------------------------------
  C1                      1.00   0.00  0.00  0.00  0.47  0.53  0.00  0.00  0.95  0.00
  C10                     1.00   0.00  0.00  0.00  0.92  0.08  0.00  0.00  0.97  0.00
  C11                     1.00   0.00  0.00  0.00  0.19  0.81  0.00  0.00  1.00  0.00
  C12                     1.00   0.00  0.00  0.00  0.97  0.03  0.00  0.00  1.00  0.00
  C13                     1.00   0.00  0.00  0.00  0.89  0.11  0.00  0.00  0.37  0.00
  C14                     1.00   0.01  0.00  0.00  0.01  0.99  0.00  0.00  0.38  0.00
  C15                     1.00   0.01  0.00  0.00  0.00  0.99  0.00  0.00  0.01  0.00
  C16                     1.00   0.00  0.01  0.00  0.16  0.83  0.00  0.00  0.18  0.00
  C17                     1.00   0.00  0.00  0.00  0.52  0.48  0.00  0.00  0.99  0.00
  C18                     1.00   0.00  0.00  0.00  0.94  0.06  0.00  0.00  0.96  0.00
  C19                     1.00   0.00  0.00  0.00  0.99  0.01  0.00  0.00  1.00  0.00
  C2                      1.00   0.00  0.00  0.00  0.72  0.28  0.00  0.00  1.00  0.00
  C20                     1.00   0.00  0.00  0.00  0.40  0.60  0.00  0.00  0.99  0.00
  C21                     1.00   0.00  0.00  0.00  0.00  1.00  0.00  0.00  0.00  0.00
  C22                     1.00   0.00  0.00  0.00  1.00  0.00  0.00  0.00  1.00  0.00
  C23                     1.00   0.00  0.00  0.00  0.92  0.08  0.00  0.00  0.95  0.00
  C3                      1.00   0.00  0.00  0.00  0.04  0.96  0.00  0.00  0.42  0.00
  C4                      1.00   0.00  0.00  0.00  0.95  0.05  0.00  0.00  0.97  0.00
  C5                      1.00   0.00  0.00  0.00  0.90  0.10  0.00  0.00  0.99  0.00
  C6                      1.00   0.00  0.00  0.00  0.01  0.99  0.00  0.00  0.00  0.00
  C7                      1.00   0.00  0.00  0.00  0.94  0.06  0.00  0.00  0.97  0.00
  C8                      1.00   0.00  0.00  0.00  0.05  0.95  0.00  0.00  0.00  0.00
  C9                      1.00   0.00  0.00  0.00  1.00  0.00  0.00  0.00  1.00  0.00
  
  
  *************************
  Conduit Surcharge Summary
  *************************
  
  ----------------------------------------------------------------------------
                                                           Hours        Hours 
                         --------- Hours Full --------   Above Full   Capacity
  Conduit                Both Ends  Upstream  Dnstream   Normal Flow   Limited
  ----------------------------------------------------------------------------
  C10                         0.01      0.01     13.74      0.01         0.01
  C13                         0.01      0.01     13.86      0.01         0.01
  C18                         0.01      0.01     12.95      0.01         0.01
  C23                         0.01      0.01     15.60      0.01         0.01
  C4                          0.01      0.01     15.54      0.01         0.01
  C7                          0.01      0.01     14.32      0.01         0.01
  

  Analysis begun on:  Sun Jul 17 21:17:11 2022
  Analysis ended on:  Sun Jul 17 21:17:12 2022
  Total elapsed time: 00:00:01