
  EPA STORM WATER MANAGEMENT MODEL - VERSION 5.1 (Build 5.3.0.dev0)
  --------------------------------------------------------------

  
  *********************************************************
  NOTE: The summary statistics displayed in this report are
  based on results found at every computational time step,  
  not just on results from each reporting time step.
  *********************************************************
  
  ****************
  Analysis Options
  ****************
  Flow Units ............... CMS
  Process Models:
    Rainfall/Runoff ........ YES
    RDII ................... NO
    Snowmelt ............... NO
    Groundwater ............ NO
    Flow Routing ........... YES
    Ponding Allowed ........ NO
    Water Quality .......... NO
  Infiltration Method ...... HORTON
  Flow Routing Method ...... DYNWAVE
  Surcharge Method ......... EXTRAN
  Starting Date ............ 08/24/2009 05:45:00
  Ending Date .............. 08/24/2009 19:45:00
  Antecedent Dry Days ...... 0.0
  Report Time Step ......... 00:05:00
  Wet Time Step ............ 00:05:00
  Dry Time Step ............ 01:00:00
  Routing Time Step ........ 30.00 sec
  Variable Time Step ....... YES
  Maximum Trials ........... 8
  Number of Threads ........ 1
  Head Tolerance ........... 0.001500 m
  
  
  **************************        Volume         Depth
  Runoff Quantity Continuity     hectare-m            mm
  **************************     ---------       -------
  Total Precipitation ......         1.710         9.492
  Evaporation Loss .........         0.000         0.000
  Infiltration Loss ........         0.000         0.000
  Surface Runoff ...........         1.670         9.267
  Final Storage ............         0.043         0.240
  Continuity Error (%) .....        -0.155
  
  
  **************************        Volume        Volume
  Flow Routing Continuity        hectare-m      10^6 ltr
  **************************     ---------     ---------
  Dry Weather Inflow .......         0.620         6.203
  Wet Weather Inflow .......         1.669        16.691
  Groundwater Inflow .......         0.000         0.000
  RDII Inflow ..............         0.000         0.000
  External Inflow ..........         0.000         0.000
  External Outflow .........         1.029        10.294
  Flooding Loss ............         0.134         1.339
  Evaporation Loss .........         0.000         0.000
  Exfiltration Loss ........         0.000         0.000
  Initial Stored Volume ....         0.000         0.000
  Final Stored Volume ......         0.841         8.408
  Continuity Error (%) .....        12.463
  
  
  *************************
  Highest Continuity Errors
  *************************
  Node T2 (30.55%)
  Node T4 (19.50%)
  Node T5 (17.89%)
  Node T3 (16.93%)
  Node T6 (15.36%)
  
  
  ***************************
  Time-Step Critical Elements
  ***************************
  Link C15 (67.61%)
  
  
  ********************************
  Highest Flow Instability Indexes
  ********************************
  Link C13 (5)
  Link C15 (3)
  Link C20 (2)
  Link C17 (2)
  Link C18 (2)
  
  
  *************************
  Routing Time Step Summary
  *************************
  Minimum Time Step           :     0.05 sec
  Average Time Step           :    26.29 sec
  Maximum Time Step           :    30.00 sec
  Percent in Steady State     :     2.98
  Average Iterations per Step :     2.01
  Percent Not Converging      :     0.00
  
  
  ***************************
  Subcatchment Runoff Summary
  ***************************
  
  ------------------------------------------------------------------------------------------------------------------------------
                            Total      Total      Total      Total     Imperv       Perv      Total       Total     Peak  Runoff
                           Precip      Runon       Evap      Infil     Runoff     Runoff     Runoff      Runoff   Runoff   Coeff
  Subcatchment                 mm         mm         mm         mm         mm         mm         mm    10^6 ltr      CMS
  ------------------------------------------------------------------------------------------------------------------------------
  SC01                       7.79       0.00       0.00       0.00       7.65       0.00       7.65        2.52     0.16   0.982
  SC010                      7.79       0.00       0.00       0.00       7.59       0.00       7.59        0.89     0.05   0.974
  SC02                      10.23       0.00       0.00       0.00      10.08       0.00      10.08        2.29     0.22   0.986
  SC03                      11.33       0.00       0.00       0.00      11.25       0.00      11.25        2.03     0.20   0.993
  SC04                      10.23       0.00       0.00       0.00       9.86       0.00       9.86        0.68     0.04   0.964
  SC05                       7.79       0.00       0.00       0.00       7.63       0.00       7.63        1.19     0.08   0.980
  SC06                       9.31       0.00       0.00       0.00       8.86       0.00       8.86        2.88     0.13   0.952
  SC07                      10.23       0.00       0.00       0.00       9.86       0.00       9.86        0.47     0.03   0.964
  SC08                      11.33       0.00       0.00       0.00      11.12       0.00      11.12        3.11     0.24   0.982
  SC09                       9.31       0.00       0.00       0.00       9.05       0.00       9.05        0.62     0.03   0.972
  
  
  ******************
  Node Depth Summary
  ******************
  
  ---------------------------------------------------------------------------------
                                 Average  Maximum  Maximum  Time of Max    Reported
                                   Depth    Depth      HGL   Occurrence   Max Depth
  Node                 Type       Meters   Meters   Meters  days hr:min      Meters
  ---------------------------------------------------------------------------------
  CSO10                JUNCTION     0.12     0.19    30.19     0  12:00        0.19
  CSO7                 JUNCTION     0.10     0.15    34.15     0  05:10        0.15
  CSO8                 JUNCTION     0.15     0.32    32.32     0  11:40        0.32
  CSO9                 JUNCTION     0.11     0.16    40.16     0  11:56        0.16
  J1                   JUNCTION     0.07     0.10    34.10     0  12:00        0.10
  J10                  JUNCTION     0.11     0.20    29.20     0  11:42        0.20
  J11                  JUNCTION     0.12     0.21    31.21     0  11:42        0.21
  J12                  JUNCTION     0.32     1.00    27.00     0  12:39        1.00
  J13                  JUNCTION     0.07     0.13    29.13     0  05:11        0.13
  J14                  JUNCTION     0.12     0.15    20.15     0  12:33        0.15
  J15                  JUNCTION     0.17     0.22    15.22     0  12:02        0.22
  J16                  JUNCTION     0.07     0.11    30.11     0  12:00        0.11
  J17                  JUNCTION     0.06     0.07    20.07     0  12:47        0.07
  J18                  JUNCTION     0.06     0.09    29.09     0  12:01        0.09
  J19                  JUNCTION     0.15     0.17     8.17     0  10:03        0.17
  J2                   JUNCTION     0.06     0.07    25.07     0  12:37        0.07
  J3                   JUNCTION     0.11     0.14    18.14     0  12:43        0.14
  J4                   JUNCTION     0.12     0.18    33.18     0  05:17        0.18
  J5                   JUNCTION     0.07     0.10    32.10     0  05:14        0.10
  J6                   JUNCTION     0.06     0.07    25.07     0  12:51        0.07
  J7                   JUNCTION     0.08     0.12    39.12     0  11:59        0.12
  J8                   JUNCTION     0.11     0.14    36.14     0  12:00        0.14
  J9                   JUNCTION     0.10     0.11    29.11     0  08:49        0.11
  Out_to_WWTP          OUTFALL      0.15     0.17     6.17     0  13:16        0.17
  T1                   STORAGE      3.30     5.00    15.00     0  10:02        5.00
  T2                   STORAGE      2.71     4.95    25.95     0  12:45        4.95
  T3                   STORAGE      2.93     5.00    27.00     0  12:27        5.00
  T4                   STORAGE      2.79     4.89    31.89     0  12:49        4.89
  T5                   STORAGE      2.53     4.10    31.10     0  12:35        4.10
  T6                   STORAGE      3.60     5.00    36.00     0  07:00        5.00
  
  
  *******************
  Node Inflow Summary
  *******************
  
  -------------------------------------------------------------------------------------------------
                                  Maximum  Maximum                  Lateral       Total        Flow
                                  Lateral    Total  Time of Max      Inflow      Inflow     Balance
                                   Inflow   Inflow   Occurrence      Volume      Volume       Error
  Node                 Type           CMS      CMS  days hr:min    10^6 ltr    10^6 ltr     Percent
  -------------------------------------------------------------------------------------------------
  CSO10                JUNCTION     0.056    0.056     0  12:00        1.11        1.11       0.007
  CSO7                 JUNCTION     0.040    0.040     0  05:10       0.925       0.925       0.040
  CSO8                 JUNCTION     0.250    0.250     0  11:40        3.56        3.56      -0.008
  CSO9                 JUNCTION     0.036    0.036     0  11:55       0.932       0.934       0.035
  J1                   JUNCTION     0.089    0.089     0  12:00        2.07        2.08      -0.009
  J10                  JUNCTION     0.205    0.441     0  11:40        2.63        6.18      -0.085
  J11                  JUNCTION     0.000    0.250     0  11:40           0        3.56       0.002
  J12                  JUNCTION     0.000    0.510     0  11:42           0         9.2       9.303
  J13                  JUNCTION     0.237    0.237     0  05:10        3.03        3.03      -0.121
  J14                  JUNCTION     0.000    0.124     0  12:32           0        4.39       0.169
  J15                  JUNCTION     0.000    0.445     0  12:01           0        12.3       0.649
  J16                  JUNCTION     0.176    0.176     0  12:00        3.39         3.4      -0.039
  J17                  JUNCTION     0.000    0.033     0  12:45           0        1.14       0.543
  J18                  JUNCTION     0.000    0.056     0  12:00           0        1.11      -0.003
  J19                  JUNCTION     0.000    0.271     0  10:03           0        10.3       0.120
  J2                   JUNCTION     0.000    0.036     0  12:36           0        1.33       0.381
  J3                   JUNCTION     0.000    0.187     0  12:41           0        6.68       0.563
  J4                   JUNCTION     0.000    0.040     0  05:11           0       0.925       0.324
  J5                   JUNCTION     0.047    0.078     0  05:13        0.88         1.8       0.053
  J6                   JUNCTION     0.000    0.028     0  12:49           0       0.979       0.418
  J7                   JUNCTION     0.000    0.036     0  11:56           0       0.933       0.231
  J8                   JUNCTION     0.150    0.185     0  11:57        4.36         5.3       0.080
  J9                   JUNCTION     0.000    0.075     0  07:00           0        3.03       0.567
  Out_to_WWTP          OUTFALL      0.000    0.271     0  10:03           0        10.3       0.000
  T1                   STORAGE      0.000    0.438     0  12:02           0        12.2       6.939
  T2                   STORAGE      0.000    0.229     0  05:11           0        3.03      43.988
  T3                   STORAGE      0.000    0.432     0  06:28           0        8.42      20.386
  T4                   STORAGE      0.000    0.078     0  05:14           0         1.8      24.216
  T5                   STORAGE      0.000    0.088     0  12:00           0        2.08      21.784
  T6                   STORAGE      0.000    0.185     0  12:00           0         5.3      18.146
  
  
  **********************
  Node Surcharge Summary
  **********************
  
  No nodes were surcharged.
  
  
  *********************
  Node Flooding Summary
  *********************
  
  Flooding refers to all water that overflows a node, whether it ponds or not.
  --------------------------------------------------------------------------
                                                             Total   Maximum
                                 Maximum   Time of Max       Flood    Ponded
                        Hours       Rate    Occurrence      Volume     Depth
  Node                 Flooded       CMS   days hr:min    10^6 ltr    Meters
  --------------------------------------------------------------------------
  T1                      1.90     0.167      0  12:03       0.437     0.000
  T3                      0.28     0.061      0  12:42       0.028     0.000
  T6                      5.78     0.109      0  12:00       0.872     0.000
  
  
  **********************
  Storage Volume Summary
  **********************
  
  --------------------------------------------------------------------------------------------------
                         Average     Avg  Evap Exfil       Maximum     Max    Time of Max    Maximum
                          Volume    Pcnt  Pcnt  Pcnt        Volume    Pcnt     Occurrence    Outflow
  Storage Unit           1000 m3    Full  Loss  Loss       1000 m3    Full    days hr:min        CMS
  --------------------------------------------------------------------------------------------------
  T1                       0.462      66     0     0         0.700     100       0  10:02      0.271
  T2                       0.541      54     0     0         0.990      99       0  12:45      0.033
  T3                       1.522      59     0     0         2.600     100       0  12:27      0.124
  T4                       0.279      56     0     0         0.489      98       0  12:49      0.028
  T5                       0.253      51     0     0         0.410      82       0  12:35      0.036
  T6                       0.432      72     0     0         0.600     100       0  07:00      0.075
  
  
  ***********************
  Outfall Loading Summary
  ***********************
  
  -----------------------------------------------------------
                         Flow       Avg       Max       Total
                         Freq      Flow      Flow      Volume
  Outfall Node           Pcnt       CMS       CMS    10^6 ltr
  -----------------------------------------------------------
  Out_to_WWTP           99.32     0.207     0.271      10.294
  -----------------------------------------------------------
  System                99.32     0.207     0.271      10.294
  
  
  ********************
  Link Flow Summary
  ********************
  
  -----------------------------------------------------------------------------
                                 Maximum  Time of Max   Maximum    Max/    Max/
                                  |Flow|   Occurrence   |Veloc|    Full    Full
  Link                 Type          CMS  days hr:min     m/sec    Flow   Depth
  -----------------------------------------------------------------------------
  C1                   CONDUIT     0.036     0  12:37      0.88    0.01    0.11
  C10                  CONDUIT     0.185     0  12:00      1.50    0.02    0.55
  C11                  CONDUIT     0.187     0  12:44      1.68    0.01    0.09
  C12                  CONDUIT     0.075     0  08:04      0.97    0.01    0.28
  C13                  CONDUIT     0.432     0  06:28      1.41    0.03    0.75
  C14                  CONDUIT     0.271     0  10:03      2.08    0.02    0.09
  C15                  CONDUIT     0.250     0  11:40      2.56    0.79    0.58
  C16                  CONDUIT     0.244     0  11:42      1.41    0.02    0.10
  C17                  CONDUIT     0.435     0  11:42      2.29    0.02    0.27
  C18                  CONDUIT     0.229     0  05:11      1.70    0.01    0.53
  C19                  CONDUIT     0.033     0  12:48      0.60    0.01    0.15
  C2                   CONDUIT     0.028     0  12:51      0.84    0.03    0.17
  C20                  CONDUIT     0.175     0  12:00      4.75    0.01    0.08
  C21                  CONDUIT     0.056     0  12:00      1.51    0.32    0.31
  C22                  CONDUIT     0.055     0  12:01      0.93    0.02    0.19
  C23                  CONDUIT     0.438     0  12:02      1.15    0.05    0.57
  C3                   CONDUIT     0.124     0  12:36      1.79    0.05    0.14
  C4                   CONDUIT     0.088     0  12:00      5.92    0.02    0.55
  C5                   CONDUIT     0.040     0  05:11      1.26    0.68    0.63
  C6                   CONDUIT     0.036     0  05:17      1.16    0.57    0.45
  C7                   CONDUIT     0.078     0  05:14      1.31    0.02    0.55
  C8                   CONDUIT     0.036     0  11:56      1.75    0.45    0.43
  C9                   CONDUIT     0.035     0  12:00      0.86    0.12    0.26
  V1                   ORIFICE     0.271     0  10:03                      1.00
  V2                   ORIFICE     0.033     0  12:45                      0.24
  V3                   ORIFICE     0.124     0  12:32                      0.65
  V4                   ORIFICE     0.028     0  12:49                      0.35
  V5                   ORIFICE     0.036     0  12:36                      1.00
  V6                   ORIFICE     0.075     0  07:00                      0.43
  
  
  ***************************
  Flow Classification Summary
  ***************************
  
  -------------------------------------------------------------------------------------
                      Adjusted    ---------- Fraction of Time in Flow Class ---------- 
                       /Actual         Up    Down  Sub   Sup   Up    Down  Norm  Inlet 
  Conduit               Length    Dry  Dry   Dry   Crit  Crit  Crit  Crit  Ltd   Ctrl  
  -------------------------------------------------------------------------------------
  C1                      1.00   0.00  0.00  0.00  0.71  0.29  0.00  0.00  0.96  0.00
  C10                     1.00   0.00  0.00  0.00  0.97  0.03  0.00  0.00  0.98  0.00
  C11                     1.00   0.00  0.00  0.00  0.16  0.84  0.00  0.00  1.00  0.00
  C12                     1.00   0.00  0.00  0.00  0.91  0.09  0.00  0.00  1.00  0.00
  C13                     1.00   0.00  0.00  0.00  0.93  0.07  0.00  0.00  0.58  0.00
  C14                     1.00   0.01  0.00  0.00  0.01  0.99  0.00  0.00  0.46  0.00
  C15                     1.00   0.02  0.00  0.00  0.00  0.98  0.00  0.00  0.00  0.00
  C16                     1.00   0.00  0.02  0.00  0.10  0.88  0.00  0.00  0.11  0.00
  C17                     1.00   0.00  0.00  0.00  0.33  0.67  0.00  0.00  0.99  0.00
  C18                     1.00   0.00  0.00  0.00  0.96  0.04  0.00  0.00  0.98  0.00
  C19                     1.00   0.00  0.00  0.00  1.00  0.00  0.00  0.00  1.00  0.00
  C2                      1.00   0.00  0.00  0.00  0.95  0.05  0.00  0.00  0.99  0.00
  C20                     1.00   0.00  0.00  0.00  0.44  0.56  0.00  0.00  0.99  0.00
  C21                     1.00   0.00  0.00  0.00  0.00  1.00  0.00  0.00  0.00  0.00
  C22                     1.00   0.00  0.00  0.00  0.99  0.01  0.00  0.00  1.00  0.00
  C23                     1.00   0.00  0.00  0.00  0.94  0.06  0.00  0.00  0.96  0.00
  C3                      1.00   0.00  0.00  0.00  0.03  0.96  0.00  0.00  0.06  0.00
  C4                      1.00   0.00  0.00  0.00  0.97  0.03  0.00  0.00  0.99  0.00
  C5                      1.00   0.00  0.00  0.00  0.91  0.09  0.00  0.00  0.99  0.00
  C6                      1.00   0.00  0.00  0.00  0.01  0.99  0.00  0.00  0.00  0.00
  C7                      1.00   0.00  0.00  0.00  0.96  0.04  0.00  0.00  0.98  0.00
  C8                      1.00   0.00  0.00  0.00  0.00  1.00  0.00  0.00  0.00  0.00
  C9                      1.00   0.00  0.00  0.00  1.00  0.00  0.00  0.00  1.00  0.00
  
  
  *************************
  Conduit Surcharge Summary
  *************************
  
  ----------------------------------------------------------------------------
                                                           Hours        Hours 
                         --------- Hours Full --------   Above Full   Capacity
  Conduit                Both Ends  Upstream  Dnstream   Normal Flow   Limited
  ----------------------------------------------------------------------------
  C10                         0.01      0.01     11.25      0.01         0.01
  C13                         0.01      0.01      9.13      0.01         0.01
  C18                         0.01      0.01      8.67      0.01         0.01
  C23                         0.01      0.01     11.39      0.01         0.01
  C4                          0.01      0.01     11.68      0.01         0.01
  C7                          0.01      0.01     10.94      0.01         0.01
  

  Analysis begun on:  Sun Jul 17 21:40:05 2022
  Analysis ended on:  Sun Jul 17 21:40:05 2022
  Total elapsed time: < 1 sec