
  EPA STORM WATER MANAGEMENT MODEL - VERSION 5.1 (Build 5.3.0.dev0)
  --------------------------------------------------------------

  
  *********************************************************
  NOTE: The summary statistics displayed in this report are
  based on results found at every computational time step,  
  not just on results from each reporting time step.
  *********************************************************
  
  ****************
  Analysis Options
  ****************
  Flow Units ............... CMS
  Process Models:
    Rainfall/Runoff ........ YES
    RDII ................... NO
    Snowmelt ............... NO
    Groundwater ............ NO
    Flow Routing ........... YES
    Ponding Allowed ........ NO
    Water Quality .......... NO
  Infiltration Method ...... HORTON
  Flow Routing Method ...... DYNWAVE
  Surcharge Method ......... EXTRAN
  Starting Date ............ 05/22/2007 05:10:00
  Ending Date .............. 05/22/2007 20:50:00
  Antecedent Dry Days ...... 0.0
  Report Time Step ......... 00:05:00
  Wet Time Step ............ 00:05:00
  Dry Time Step ............ 01:00:00
  Routing Time Step ........ 30.00 sec
  Variable Time Step ....... YES
  Maximum Trials ........... 8
  Number of Threads ........ 1
  Head Tolerance ........... 0.001500 m
  
  
  **************************        Volume         Depth
  Runoff Quantity Continuity     hectare-m            mm
  **************************     ---------       -------
  Total Precipitation ......         2.295        12.737
  Evaporation Loss .........         0.000         0.000
  Infiltration Loss ........         0.000         0.000
  Surface Runoff ...........         2.267        12.579
  Final Storage ............         0.029         0.163
  Continuity Error (%) .....        -0.036
  
  
  **************************        Volume        Volume
  Flow Routing Continuity        hectare-m      10^6 ltr
  **************************     ---------     ---------
  Dry Weather Inflow .......         0.670         6.697
  Wet Weather Inflow .......         2.266        22.664
  Groundwater Inflow .......         0.000         0.000
  RDII Inflow ..............         0.000         0.000
  External Inflow ..........         0.000         0.000
  External Outflow .........         1.111        11.113
  Flooding Loss ............         0.759         7.594
  Evaporation Loss .........         0.000         0.000
  Exfiltration Loss ........         0.000         0.000
  Initial Stored Volume ....         0.000         0.000
  Final Stored Volume ......         0.814         8.140
  Continuity Error (%) .....         8.563
  
  
  *************************
  Highest Continuity Errors
  *************************
  Node T2 (24.22%)
  Node T4 (14.50%)
  Node T3 (14.48%)
  Node T5 (12.44%)
  Node T6 (11.45%)
  
  
  ***************************
  Time-Step Critical Elements
  ***************************
  Link C15 (52.11%)
  
  
  ********************************
  Highest Flow Instability Indexes
  ********************************
  Link C13 (5)
  Link C15 (3)
  Link C20 (3)
  Link C4 (2)
  Link C21 (2)
  
  
  *************************
  Routing Time Step Summary
  *************************
  Minimum Time Step           :     0.40 sec
  Average Time Step           :    25.81 sec
  Maximum Time Step           :    30.00 sec
  Percent in Steady State     :    14.32
  Average Iterations per Step :     2.01
  Percent Not Converging      :     0.00
  
  
  ***************************
  Subcatchment Runoff Summary
  ***************************
  
  ------------------------------------------------------------------------------------------------------------------------------
                            Total      Total      Total      Total     Imperv       Perv      Total       Total     Peak  Runoff
                           Precip      Runon       Evap      Infil     Runoff     Runoff     Runoff      Runoff   Runoff   Coeff
  Subcatchment                 mm         mm         mm         mm         mm         mm         mm    10^6 ltr      CMS
  ------------------------------------------------------------------------------------------------------------------------------
  SC01                      14.32       0.00       0.00       0.00      14.22       0.00      14.22        4.69     0.34   0.993
  SC010                     14.32       0.00       0.00       0.00      14.18       0.00      14.18        1.67     0.12   0.990
  SC02                      12.29       0.00       0.00       0.00      12.18       0.00      12.18        2.77     0.15   0.991
  SC03                      12.44       0.00       0.00       0.00      12.35       0.00      12.35        2.22     0.12   0.993
  SC04                      12.29       0.00       0.00       0.00      12.07       0.00      12.07        0.83     0.04   0.982
  SC05                      14.32       0.00       0.00       0.00      14.21       0.00      14.21        2.22     0.16   0.992
  SC06                      11.05       0.00       0.00       0.00      10.76       0.00      10.76        3.50     0.16   0.974
  SC07                      12.29       0.00       0.00       0.00      12.07       0.00      12.07        0.57     0.03   0.982
  SC08                      12.44       0.00       0.00       0.00      12.28       0.00      12.28        3.44     0.18   0.987
  SC09                      11.05       0.00       0.00       0.00      10.87       0.00      10.87        0.75     0.03   0.984
  
  
  ******************
  Node Depth Summary
  ******************
  
  ---------------------------------------------------------------------------------
                                 Average  Maximum  Maximum  Time of Max    Reported
                                   Depth    Depth      HGL   Occurrence   Max Depth
  Node                 Type       Meters   Meters   Meters  days hr:min      Meters
  ---------------------------------------------------------------------------------
  CSO10                JUNCTION     0.14     0.29    30.29     0  09:00        0.29
  CSO7                 JUNCTION     0.10     0.16    34.16     0  07:06        0.16
  CSO8                 JUNCTION     0.15     0.26    32.26     0  06:50        0.26
  CSO9                 JUNCTION     0.11     0.17    40.17     0  06:36        0.17
  J1                   JUNCTION     0.08     0.14    34.14     0  09:01        0.14
  J10                  JUNCTION     0.11     0.18    29.18     0  06:54        0.18
  J11                  JUNCTION     0.11     0.19    31.19     0  06:54        0.19
  J12                  JUNCTION     0.47     1.01    27.01     0  10:43        1.01
  J13                  JUNCTION     0.07     0.11    29.11     0  08:50        0.11
  J14                  JUNCTION     0.12     0.15    20.15     0  13:53        0.15
  J15                  JUNCTION     0.18     0.28    15.28     0  09:04        0.28
  J16                  JUNCTION     0.08     0.15    30.15     0  09:00        0.15
  J17                  JUNCTION     0.06     0.08    20.08     0  10:22        0.08
  J18                  JUNCTION     0.07     0.13    29.13     0  09:02        0.13
  J19                  JUNCTION     0.14     0.17     8.17     0  06:50        0.17
  J2                   JUNCTION     0.07     0.08    25.08     0  11:12        0.08
  J3                   JUNCTION     0.11     0.14    18.14     0  11:07        0.14
  J4                   JUNCTION     0.13     0.19    33.19     0  07:10        0.19
  J5                   JUNCTION     0.07     0.10    32.10     0  07:10        0.10
  J6                   JUNCTION     0.06     0.07    25.07     0  11:53        0.07
  J7                   JUNCTION     0.09     0.13    39.13     0  06:42        0.13
  J8                   JUNCTION     0.11     0.16    36.16     0  08:50        0.16
  J9                   JUNCTION     0.09     0.11    29.11     0  09:20        0.11
  Out_to_WWTP          OUTFALL      0.14     0.17     6.17     0  13:47        0.17
  T1                   STORAGE      3.40     5.00    15.00     0  06:48        5.00
  T2                   STORAGE      2.98     5.00    26.00     0  09:15        5.00
  T3                   STORAGE      2.98     5.00    27.00     0  10:05        5.00
  T4                   STORAGE      3.03     5.00    32.00     0  08:58        5.00
  T5                   STORAGE      3.23     5.00    32.00     0  07:53        5.00
  T6                   STORAGE      3.38     5.00    36.00     0  07:23        5.00
  
  
  *******************
  Node Inflow Summary
  *******************
  
  -------------------------------------------------------------------------------------------------
                                  Maximum  Maximum                  Lateral       Total        Flow
                                  Lateral    Total  Time of Max      Inflow      Inflow     Balance
                                   Inflow   Inflow   Occurrence      Volume      Volume       Error
  Node                 Type           CMS      CMS  days hr:min    10^6 ltr    10^6 ltr     Percent
  -------------------------------------------------------------------------------------------------
  CSO10                JUNCTION     0.121    0.121     0  09:00         1.9        1.91      -0.262
  CSO7                 JUNCTION     0.040    0.040     0  07:05        1.07        1.07      -0.223
  CSO8                 JUNCTION     0.189    0.189     0  06:50        3.88        3.88      -0.218
  CSO9                 JUNCTION     0.043    0.043     0  06:35        1.08        1.09      -0.300
  J1                   JUNCTION     0.178    0.178     0  09:00        3.18        3.18      -0.272
  J10                  JUNCTION     0.140    0.325     0  06:52        2.88        6.82      -0.811
  J11                  JUNCTION     0.000    0.189     0  06:51           0        3.89      -1.266
  J12                  JUNCTION     0.000    0.392     0  06:54           0          10      11.134
  J13                  JUNCTION     0.168    0.168     0  08:50        3.57        3.58      -0.707
  J14                  JUNCTION     0.000    0.124     0  10:13           0        4.74       0.157
  J15                  JUNCTION     0.000    0.695     0  09:01           0        16.2       0.208
  J16                  JUNCTION     0.362    0.362     0  09:00        5.64        5.64      -0.297
  J17                  JUNCTION     0.000    0.033     0  09:15           0        1.28       0.480
  J18                  JUNCTION     0.000    0.121     0  09:01           0        1.91      -0.502
  J19                  JUNCTION     0.000    0.271     0  06:49           0        11.1       0.110
  J2                   JUNCTION     0.000    0.039     0  07:53           0        1.59       0.327
  J3                   JUNCTION     0.000    0.191     0  10:34           0        7.41       0.509
  J4                   JUNCTION     0.000    0.040     0  07:06           0        1.07      -0.555
  J5                   JUNCTION     0.045    0.085     0  07:10        1.05        2.13      -0.484
  J6                   JUNCTION     0.000    0.028     0  08:58           0        1.09       0.360
  J7                   JUNCTION     0.000    0.043     0  06:37           0        1.09      -0.652
  J8                   JUNCTION     0.191    0.232     0  08:50        5.11        6.22      -0.583
  J9                   JUNCTION     0.000    0.075     0  07:23           0        3.16       0.503
  Out_to_WWTP          OUTFALL      0.000    0.271     0  06:50           0        11.1       0.000
  T1                   STORAGE      0.000    0.687     0  09:04           0        16.2       4.865
  T2                   STORAGE      0.000    0.167     0  08:50           0         3.6      31.962
  T3                   STORAGE      0.000    0.389     0  06:57           0        9.02      16.931
  T4                   STORAGE      0.000    0.085     0  07:10           0        2.14      16.963
  T5                   STORAGE      0.000    0.178     0  09:01           0        3.19      14.201
  T6                   STORAGE      0.000    0.231     0  08:50           0        6.26      12.936
  
  
  **********************
  Node Surcharge Summary
  **********************
  
  No nodes were surcharged.
  
  
  *********************
  Node Flooding Summary
  *********************
  
  Flooding refers to all water that overflows a node, whether it ponds or not.
  --------------------------------------------------------------------------
                                                             Total   Maximum
                                 Maximum   Time of Max       Flood    Ponded
                        Hours       Rate    Occurrence      Volume     Depth
  Node                 Flooded       CMS   days hr:min    10^6 ltr    Meters
  --------------------------------------------------------------------------
  T1                      6.63     0.417      0  09:04       3.679     0.000
  T2                      3.60     0.106      0  09:15       0.525     0.000
  T3                      2.52     0.149      0  10:46       0.420     0.000
  T4                      3.05     0.054      0  08:58       0.306     0.000
  T5                      3.98     0.138      0  09:01       0.790     0.000
  T6                      5.76     0.156      0  08:50       1.871     0.000
  
  
  **********************
  Storage Volume Summary
  **********************
  
  --------------------------------------------------------------------------------------------------
                         Average     Avg  Evap Exfil       Maximum     Max    Time of Max    Maximum
                          Volume    Pcnt  Pcnt  Pcnt        Volume    Pcnt     Occurrence    Outflow
  Storage Unit           1000 m3    Full  Loss  Loss       1000 m3    Full    days hr:min        CMS
  --------------------------------------------------------------------------------------------------
  T1                       0.476      68     0     0         0.700     100       0  06:48      0.271
  T2                       0.595      60     0     0         1.000     100       0  09:15      0.033
  T3                       1.550      60     0     0         2.600     100       0  10:05      0.124
  T4                       0.303      61     0     0         0.500     100       0  08:58      0.028
  T5                       0.323      65     0     0         0.500     100       0  07:53      0.039
  T6                       0.406      68     0     0         0.600     100       0  07:23      0.075
  
  
  ***********************
  Outfall Loading Summary
  ***********************
  
  -----------------------------------------------------------
                         Flow       Avg       Max       Total
                         Freq      Flow      Flow      Volume
  Outfall Node           Pcnt       CMS       CMS    10^6 ltr
  -----------------------------------------------------------
  Out_to_WWTP           99.40     0.205     0.271      11.113
  -----------------------------------------------------------
  System                99.40     0.205     0.271      11.113
  
  
  ********************
  Link Flow Summary
  ********************
  
  -----------------------------------------------------------------------------
                                 Maximum  Time of Max   Maximum    Max/    Max/
                                  |Flow|   Occurrence   |Veloc|    Full    Full
  Link                 Type          CMS  days hr:min     m/sec    Flow   Depth
  -----------------------------------------------------------------------------
  C1                   CONDUIT     0.039     0  08:34      0.91    0.01    0.11
  C10                  CONDUIT     0.231     0  08:50      1.50    0.02    0.55
  C11                  CONDUIT     0.191     0  11:07      1.71    0.01    0.10
  C12                  CONDUIT     0.075     0  08:33      0.73    0.01    0.28
  C13                  CONDUIT     0.389     0  06:57      1.22    0.02    0.75
  C14                  CONDUIT     0.271     0  06:50      2.08    0.02    0.09
  C15                  CONDUIT     0.189     0  06:51      2.37    0.60    0.50
  C16                  CONDUIT     0.188     0  06:54      1.31    0.02    0.09
  C17                  CONDUIT     0.324     0  06:54      2.10    0.02    0.28
  C18                  CONDUIT     0.167     0  08:50      1.70    0.01    0.53
  C19                  CONDUIT     0.033     0  10:22      0.60    0.01    0.18
  C2                   CONDUIT     0.028     0  09:41      0.85    0.03    0.18
  C20                  CONDUIT     0.360     0  09:01      4.75    0.01    0.11
  C21                  CONDUIT     0.121     0  09:01      1.69    0.69    0.48
  C22                  CONDUIT     0.120     0  09:02      1.19    0.05    0.25
  C23                  CONDUIT     0.687     0  09:04      1.14    0.08    0.59
  C3                   CONDUIT     0.124     0  10:34      1.78    0.05    0.14
  C4                   CONDUIT     0.178     0  09:01      5.92    0.04    0.57
  C5                   CONDUIT     0.040     0  07:06      1.26    0.69    0.67
  C6                   CONDUIT     0.040     0  07:11      1.19    0.64    0.48
  C7                   CONDUIT     0.085     0  07:10      1.31    0.02    0.55
  C8                   CONDUIT     0.043     0  06:37      1.75    0.54    0.47
  C9                   CONDUIT     0.043     0  06:42      0.91    0.15    0.29
  V1                   ORIFICE     0.271     0  06:49                      1.00
  V2                   ORIFICE     0.033     0  09:15                      0.24
  V3                   ORIFICE     0.124     0  10:13                      0.65
  V4                   ORIFICE     0.028     0  08:58                      0.35
  V5                   ORIFICE     0.039     0  07:53                      1.00
  V6                   ORIFICE     0.075     0  07:23                      0.43
  
  
  ***************************
  Flow Classification Summary
  ***************************
  
  -------------------------------------------------------------------------------------
                      Adjusted    ---------- Fraction of Time in Flow Class ---------- 
                       /Actual         Up    Down  Sub   Sup   Up    Down  Norm  Inlet 
  Conduit               Length    Dry  Dry   Dry   Crit  Crit  Crit  Crit  Ltd   Ctrl  
  -------------------------------------------------------------------------------------
  C1                      1.00   0.00  0.00  0.00  0.18  0.82  0.00  0.00  0.97  0.00
  C10                     1.00   0.00  0.00  0.00  0.98  0.02  0.00  0.00  0.99  0.00
  C11                     1.00   0.00  0.00  0.00  0.22  0.78  0.00  0.00  1.00  0.00
  C12                     1.00   0.00  0.00  0.00  1.00  0.00  0.00  0.00  1.00  0.00
  C13                     1.00   0.00  0.00  0.00  0.92  0.08  0.00  0.00  0.47  0.00
  C14                     1.00   0.00  0.00  0.00  0.00  0.99  0.00  0.00  0.32  0.00
  C15                     1.00   0.02  0.00  0.00  0.00  0.98  0.00  0.00  0.01  0.00
  C16                     1.00   0.00  0.02  0.00  0.22  0.76  0.00  0.00  0.23  0.00
  C17                     1.00   0.00  0.00  0.00  0.44  0.56  0.00  0.00  0.99  0.00
  C18                     1.00   0.00  0.00  0.00  0.96  0.04  0.00  0.00  0.98  0.00
  C19                     1.00   0.00  0.00  0.00  1.00  0.00  0.00  0.00  1.00  0.00
  C2                      1.00   0.00  0.00  0.00  0.86  0.14  0.00  0.00  0.99  0.00
  C20                     1.00   0.00  0.00  0.00  0.26  0.74  0.00  0.00  0.99  0.00
  C21                     1.00   0.00  0.00  0.00  0.00  1.00  0.00  0.00  0.00  0.00
  C22                     1.00   0.00  0.00  0.00  0.95  0.05  0.00  0.00  1.00  0.00
  C23                     1.00   0.00  0.00  0.00  0.93  0.06  0.00  0.00  0.97  0.00
  C3                      1.00   0.00  0.00  0.00  0.03  0.96  0.00  0.00  0.08  0.00
  C4                      1.00   0.00  0.00  0.00  0.98  0.02  0.00  0.00  0.99  0.00
  C5                      1.00   0.00  0.00  0.00  0.97  0.03  0.00  0.00  0.99  0.00
  C6                      1.00   0.00  0.00  0.00  0.01  0.99  0.00  0.00  0.00  0.00
  C7                      1.00   0.00  0.00  0.00  0.97  0.03  0.00  0.00  0.98  0.00
  C8                      1.00   0.00  0.00  0.00  0.00  1.00  0.00  0.00  0.00  0.00
  C9                      1.00   0.00  0.00  0.00  1.00  0.00  0.00  0.00  1.00  0.00
  
  
  *************************
  Conduit Surcharge Summary
  *************************
  
  ----------------------------------------------------------------------------
                                                           Hours        Hours 
                         --------- Hours Full --------   Above Full   Capacity
  Conduit                Both Ends  Upstream  Dnstream   Normal Flow   Limited
  ----------------------------------------------------------------------------
  C10                         0.01      0.01     10.88      0.01         0.01
  C13                         0.01      0.01      9.25      0.01         0.01
  C18                         0.01      0.01      9.25      0.01         0.01
  C23                         0.01      0.01     10.43      0.01         0.01
  C4                          0.01      0.01     11.17      0.01         0.01
  C7                          0.01      0.01     10.72      0.01         0.01
  

  Analysis begun on:  Sun Jul 17 19:57:50 2022
  Analysis ended on:  Sun Jul 17 19:57:50 2022
  Total elapsed time: < 1 sec