
  EPA STORM WATER MANAGEMENT MODEL - VERSION 5.1 (Build 5.3.0.dev0)
  --------------------------------------------------------------

  
  *********************************************************
  NOTE: The summary statistics displayed in this report are
  based on results found at every computational time step,  
  not just on results from each reporting time step.
  *********************************************************
  
  ****************
  Analysis Options
  ****************
  Flow Units ............... CMS
  Process Models:
    Rainfall/Runoff ........ YES
    RDII ................... NO
    Snowmelt ............... NO
    Groundwater ............ NO
    Flow Routing ........... YES
    Ponding Allowed ........ NO
    Water Quality .......... NO
  Infiltration Method ...... HORTON
  Flow Routing Method ...... DYNWAVE
  Surcharge Method ......... EXTRAN
  Starting Date ............ 03/19/2007 14:15:00
  Ending Date .............. 03/20/2007 15:55:00
  Antecedent Dry Days ...... 0.0
  Report Time Step ......... 00:05:00
  Wet Time Step ............ 00:05:00
  Dry Time Step ............ 01:00:00
  Routing Time Step ........ 30.00 sec
  Variable Time Step ....... YES
  Maximum Trials ........... 8
  Number of Threads ........ 1
  Head Tolerance ........... 0.001500 m
  
  
  **************************        Volume         Depth
  Runoff Quantity Continuity     hectare-m            mm
  **************************     ---------       -------
  Total Precipitation ......         1.354         7.515
  Evaporation Loss .........         0.000         0.000
  Infiltration Loss ........         0.000         0.000
  Surface Runoff ...........         1.335         7.408
  Final Storage ............         0.020         0.110
  Continuity Error (%) .....        -0.041
  
  
  **************************        Volume        Volume
  Flow Routing Continuity        hectare-m      10^6 ltr
  **************************     ---------     ---------
  Dry Weather Inflow .......         0.830         8.298
  Wet Weather Inflow .......         1.335        13.348
  Groundwater Inflow .......         0.000         0.000
  RDII Inflow ..............         0.000         0.000
  External Inflow ..........         0.000         0.000
  External Outflow .........         1.761        17.607
  Flooding Loss ............         0.000         0.000
  Evaporation Loss .........         0.000         0.000
  Exfiltration Loss ........         0.000         0.000
  Initial Stored Volume ....         0.000         0.000
  Final Stored Volume ......         0.359         3.587
  Continuity Error (%) .....         2.084
  
  
  *************************
  Highest Continuity Errors
  *************************
  Node T4 (18.95%)
  Node T5 (8.44%)
  Node T3 (7.99%)
  Node T1 (1.43%)
  Node T2 (-1.30%)
  
  
  ***************************
  Time-Step Critical Elements
  ***************************
  Link C15 (28.13%)
  
  
  ********************************
  Highest Flow Instability Indexes
  ********************************
  Link C11 (4)
  Link C20 (3)
  Link C3 (3)
  Link C23 (3)
  Link C15 (3)
  
  
  *************************
  Routing Time Step Summary
  *************************
  Minimum Time Step           :     0.08 sec
  Average Time Step           :    28.69 sec
  Maximum Time Step           :    30.00 sec
  Percent in Steady State     :    12.21
  Average Iterations per Step :     2.01
  Percent Not Converging      :     0.00
  
  
  ***************************
  Subcatchment Runoff Summary
  ***************************
  
  ------------------------------------------------------------------------------------------------------------------------------
                            Total      Total      Total      Total     Imperv       Perv      Total       Total     Peak  Runoff
                           Precip      Runon       Evap      Infil     Runoff     Runoff     Runoff      Runoff   Runoff   Coeff
  Subcatchment                 mm         mm         mm         mm         mm         mm         mm    10^6 ltr      CMS
  ------------------------------------------------------------------------------------------------------------------------------
  SC01                       6.06       0.00       0.00       0.00       5.99       0.00       5.99        1.98     0.07   0.989
  SC010                      6.06       0.00       0.00       0.00       5.98       0.00       5.98        0.70     0.02   0.986
  SC02                       6.09       0.00       0.00       0.00       6.02       0.00       6.02        1.37     0.04   0.988
  SC03                      10.51       0.00       0.00       0.00      10.43       0.00      10.43        1.88     0.09   0.993
  SC04                       6.09       0.00       0.00       0.00       5.97       0.00       5.97        0.41     0.01   0.980
  SC05                       6.06       0.00       0.00       0.00       5.99       0.00       5.99        0.93     0.03   0.988
  SC06                       7.49       0.00       0.00       0.00       7.31       0.00       7.31        2.38     0.09   0.976
  SC07                       6.09       0.00       0.00       0.00       5.97       0.00       5.97        0.28     0.01   0.980
  SC08                      10.51       0.00       0.00       0.00      10.38       0.00      10.38        2.91     0.13   0.988
  SC09                       7.49       0.00       0.00       0.00       7.36       0.00       7.36        0.51     0.02   0.983
  
  
  ******************
  Node Depth Summary
  ******************
  
  ---------------------------------------------------------------------------------
                                 Average  Maximum  Maximum  Time of Max    Reported
                                   Depth    Depth      HGL   Occurrence   Max Depth
  Node                 Type       Meters   Meters   Meters  days hr:min      Meters
  ---------------------------------------------------------------------------------
  CSO10                JUNCTION     0.08     0.12    30.12     0  13:50        0.12
  CSO7                 JUNCTION     0.07     0.09    34.09     0  04:01        0.09
  CSO8                 JUNCTION     0.11     0.21    32.21     0  12:35        0.21
  CSO9                 JUNCTION     0.08     0.12    40.12     0  13:00        0.12
  J1                   JUNCTION     0.05     0.07    34.07     0  02:31        0.07
  J10                  JUNCTION     0.08     0.15    29.15     0  12:38        0.15
  J11                  JUNCTION     0.08     0.16    31.16     0  12:39        0.16
  J12                  JUNCTION     0.12     0.18    26.18     0  12:42        0.18
  J13                  JUNCTION     0.05     0.07    29.07     0  03:41        0.07
  J14                  JUNCTION     0.13     0.17    20.17     0  19:53        0.17
  J15                  JUNCTION     0.15     0.18    15.18     0  14:03        0.18
  J16                  JUNCTION     0.05     0.07    30.07     0  13:11        0.07
  J17                  JUNCTION     0.07     0.09    20.09     0  04:53        0.09
  J18                  JUNCTION     0.04     0.06    29.06     0  13:52        0.06
  J19                  JUNCTION     0.14     0.16     8.16     0  14:46        0.16
  J2                   JUNCTION     0.06     0.06    25.06     0  06:11        0.06
  J3                   JUNCTION     0.11     0.13    18.13     0  20:20        0.13
  J4                   JUNCTION     0.09     0.11    33.11     0  03:52        0.11
  J5                   JUNCTION     0.05     0.06    32.06     0  03:51        0.06
  J6                   JUNCTION     0.05     0.08    25.08     0  04:40        0.08
  J7                   JUNCTION     0.06     0.09    39.09     0  13:03        0.09
  J8                   JUNCTION     0.08     0.11    36.11     0  13:03        0.11
  J9                   JUNCTION     0.09     0.12    29.12     0  15:03        0.12
  Out_to_WWTP          OUTFALL      0.14     0.16     6.16     0  14:46        0.16
  T1                   STORAGE      2.66     3.78    13.78     0  14:45        3.78
  T2                   STORAGE      0.21     0.50    21.50     0  04:51        0.50
  T3                   STORAGE      2.11     3.00    25.00     0  18:05        3.00
  T4                   STORAGE      1.80     2.92    29.92     1  01:40        2.92
  T5                   STORAGE      1.28     1.63    28.63     0  06:08        1.63
  T6                   STORAGE      0.70     1.26    32.26     0  15:00        1.26
  
  
  *******************
  Node Inflow Summary
  *******************
  
  -------------------------------------------------------------------------------------------------
                                  Maximum  Maximum                  Lateral       Total        Flow
                                  Lateral    Total  Time of Max      Inflow      Inflow     Balance
                                   Inflow   Inflow   Occurrence      Volume      Volume       Error
  Node                 Type           CMS      CMS  days hr:min    10^6 ltr    10^6 ltr     Percent
  -------------------------------------------------------------------------------------------------
  CSO10                JUNCTION     0.023    0.023     0  13:50       0.998       0.999       0.198
  CSO7                 JUNCTION     0.015    0.015     0  04:00       0.901       0.902       0.481
  CSO8                 JUNCTION     0.132    0.132     0  12:35        3.42        3.41      -0.139
  CSO9                 JUNCTION     0.022    0.022     0  13:00       0.925       0.926       0.314
  J1                   JUNCTION     0.039    0.039     0  02:30        2.13        2.13       0.506
  J10                  JUNCTION     0.096    0.223     0  12:36         2.7        6.12      -0.153
  J11                  JUNCTION     0.000    0.132     0  12:35           0        3.42      -0.286
  J12                  JUNCTION     0.000    0.281     0  12:39           0        11.3      -0.165
  J13                  JUNCTION     0.053    0.053     0  03:40        2.36        2.36       0.137
  J14                  JUNCTION     0.000    0.147     0  18:05           0        9.03       0.753
  J15                  JUNCTION     0.000    0.290     0  13:51           0        18.2       0.053
  J16                  JUNCTION     0.069    0.069     0  13:10        3.15        3.16       0.320
  J17                  JUNCTION     0.000    0.043     0  04:51           0        2.38       0.094
  J18                  JUNCTION     0.000    0.023     0  13:50           0       0.997       0.196
  J19                  JUNCTION     0.000    0.235     0  14:45           0        17.6       0.050
  J2                   JUNCTION     0.000    0.022     0  06:09           0         1.8       0.200
  J3                   JUNCTION     0.000    0.181     0  19:13           0        11.7       0.585
  J4                   JUNCTION     0.000    0.015     0  04:01           0       0.898       0.490
  J5                   JUNCTION     0.015    0.030     0  04:00       0.683        1.58       0.156
  J6                   JUNCTION     0.000    0.034     0  04:36           0       0.984       0.036
  J7                   JUNCTION     0.000    0.022     0  13:00           0       0.924       0.200
  J8                   JUNCTION     0.095    0.116     0  13:00        4.38        5.31       0.297
  J9                   JUNCTION     0.000    0.087     0  15:01           0        5.18       0.055
  Out_to_WWTP          OUTFALL      0.000    0.235     0  14:46           0        17.6       0.000
  T1                   STORAGE      0.000    0.288     0  14:03           0        18.2       1.454
  T2                   STORAGE      0.000    0.053     0  03:41           0        2.36      -1.288
  T3                   STORAGE      0.000    0.279     0  12:42           0        11.3       8.681
  T4                   STORAGE      0.000    0.030     0  03:52           0        1.57      23.385
  T5                   STORAGE      0.000    0.039     0  02:31           0        2.12       9.222
  T6                   STORAGE      0.000    0.115     0  13:03           0         5.3       0.655
  
  
  **********************
  Node Surcharge Summary
  **********************
  
  No nodes were surcharged.
  
  
  *********************
  Node Flooding Summary
  *********************
  
  No nodes were flooded.
  
  
  **********************
  Storage Volume Summary
  **********************
  
  --------------------------------------------------------------------------------------------------
                         Average     Avg  Evap Exfil       Maximum     Max    Time of Max    Maximum
                          Volume    Pcnt  Pcnt  Pcnt        Volume    Pcnt     Occurrence    Outflow
  Storage Unit           1000 m3    Full  Loss  Loss       1000 m3    Full    days hr:min        CMS
  --------------------------------------------------------------------------------------------------
  T1                       0.372      53     0     0         0.529      76       0  14:45      0.235
  T2                       0.043       4     0     0         0.100      10       0  04:51      0.043
  T3                       1.100      42     0     0         1.561      60       0  18:05      0.147
  T4                       0.180      36     0     0         0.292      58       1  01:40      0.034
  T5                       0.128      26     0     0         0.163      33       0  06:08      0.022
  T6                       0.084      14     0     0         0.151      25       0  15:00      0.087
  
  
  ***********************
  Outfall Loading Summary
  ***********************
  
  -----------------------------------------------------------
                         Flow       Avg       Max       Total
                         Freq      Flow      Flow      Volume
  Outfall Node           Pcnt       CMS       CMS    10^6 ltr
  -----------------------------------------------------------
  Out_to_WWTP           99.66     0.191     0.235      17.607
  -----------------------------------------------------------
  System                99.66     0.191     0.235      17.607
  
  
  ********************
  Link Flow Summary
  ********************
  
  -----------------------------------------------------------------------------
                                 Maximum  Time of Max   Maximum    Max/    Max/
                                  |Flow|   Occurrence   |Veloc|    Full    Full
  Link                 Type          CMS  days hr:min     m/sec    Flow   Depth
  -----------------------------------------------------------------------------
  C1                   CONDUIT     0.022     0  06:11      0.92    0.01    0.10
  C10                  CONDUIT     0.115     0  13:03      1.69    0.01    0.45
  C11                  CONDUIT     0.177     0  20:20      1.76    0.01    0.08
  C12                  CONDUIT     0.087     0  15:03      1.10    0.01    0.07
  C13                  CONDUIT     0.279     0  12:42      1.40    0.02    0.54
  C14                  CONDUIT     0.235     0  14:46      2.00    0.01    0.08
  C15                  CONDUIT     0.132     0  12:35      2.13    0.42    0.41
  C16                  CONDUIT     0.130     0  12:39      1.18    0.01    0.08
  C17                  CONDUIT     0.223     0  12:38      1.85    0.01    0.08
  C18                  CONDUIT     0.053     0  03:41      3.22    0.00    0.14
  C19                  CONDUIT     0.043     0  04:53      0.80    0.01    0.13
  C2                   CONDUIT     0.032     0  04:40      1.11    0.04    0.16
  C20                  CONDUIT     0.068     0  13:11      2.30    0.00    0.06
  C21                  CONDUIT     0.023     0  13:50      1.07    0.13    0.20
  C22                  CONDUIT     0.023     0  13:52      0.55    0.01    0.15
  C23                  CONDUIT     0.288     0  14:03      1.29    0.03    0.56
  C3                   CONDUIT     0.148     0  18:08      2.11    0.06    0.15
  C4                   CONDUIT     0.039     0  02:31      2.44    0.01    0.53
  C5                   CONDUIT     0.015     0  04:01      1.25    0.26    0.38
  C6                   CONDUIT     0.015     0  03:52      0.92    0.24    0.28
  C7                   CONDUIT     0.030     0  03:52      1.47    0.01    0.53
  C8                   CONDUIT     0.022     0  13:00      0.97    0.28    0.33
  C9                   CONDUIT     0.022     0  13:03      0.75    0.07    0.21
  V1                   ORIFICE     0.235     0  14:45                      1.00
  V2                   ORIFICE     0.043     0  04:51                      1.00
  V3                   ORIFICE     0.147     0  18:05                      1.00
  V4                   ORIFICE     0.034     0  04:36                      1.00
  V5                   ORIFICE     0.022     0  06:09                      1.00
  V6                   ORIFICE     0.087     0  15:01                      1.00
  
  
  ***************************
  Flow Classification Summary
  ***************************
  
  -------------------------------------------------------------------------------------
                      Adjusted    ---------- Fraction of Time in Flow Class ---------- 
                       /Actual         Up    Down  Sub   Sup   Up    Down  Norm  Inlet 
  Conduit               Length    Dry  Dry   Dry   Crit  Crit  Crit  Crit  Ltd   Ctrl  
  -------------------------------------------------------------------------------------
  C1                      1.00   0.00  0.00  0.00  0.93  0.06  0.00  0.00  0.99  0.00
  C10                     1.00   0.00  0.00  0.00  0.99  0.01  0.00  0.00  0.99  0.00
  C11                     1.00   0.00  0.00  0.00  0.04  0.96  0.00  0.00  1.00  0.00
  C12                     1.00   0.00  0.00  0.00  0.50  0.50  0.00  0.00  0.99  0.00
  C13                     1.00   0.00  0.00  0.00  0.95  0.05  0.00  0.00  0.97  0.00
  C14                     1.00   0.00  0.00  0.00  0.00  0.99  0.00  0.00  0.75  0.00
  C15                     1.00   0.00  0.00  0.00  0.00  1.00  0.00  0.00  0.00  0.00
  C16                     1.00   0.00  0.00  0.00  0.31  0.69  0.00  0.00  0.26  0.00
  C17                     1.00   0.00  0.00  0.00  0.13  0.87  0.00  0.00  0.99  0.00
  C18                     1.00   0.00  0.00  0.00  0.94  0.06  0.00  0.00  0.99  0.00
  C19                     1.00   0.00  0.00  0.00  1.00  0.00  0.00  0.00  1.00  0.00
  C2                      1.00   0.00  0.00  0.00  0.90  0.10  0.00  0.00  0.99  0.00
  C20                     1.00   0.00  0.00  0.00  0.89  0.11  0.00  0.00  0.99  0.00
  C21                     1.00   0.00  0.00  0.00  0.00  1.00  0.00  0.00  0.00  0.00
  C22                     1.00   0.00  0.00  0.00  0.99  0.01  0.00  0.00  1.00  0.00
  C23                     1.00   0.00  0.00  0.00  0.97  0.03  0.00  0.00  0.98  0.00
  C3                      1.00   0.00  0.00  0.00  0.02  0.98  0.00  0.00  0.07  0.00
  C4                      1.00   0.00  0.00  0.00  0.99  0.01  0.00  0.00  0.99  0.00
  C5                      1.00   0.00  0.00  0.00  0.94  0.06  0.00  0.00  0.99  0.00
  C6                      1.00   0.00  0.00  0.00  0.00  1.00  0.00  0.00  0.00  0.00
  C7                      1.00   0.00  0.00  0.00  0.98  0.02  0.00  0.00  0.99  0.00
  C8                      1.00   0.00  0.00  0.00  0.00  1.00  0.00  0.00  0.00  0.00
  C9                      1.00   0.00  0.00  0.00  1.00  0.00  0.00  0.00  1.00  0.00
  
  
  *************************
  Conduit Surcharge Summary
  *************************
  
  ----------------------------------------------------------------------------
                                                           Hours        Hours 
                         --------- Hours Full --------   Above Full   Capacity
  Conduit                Both Ends  Upstream  Dnstream   Normal Flow   Limited
  ----------------------------------------------------------------------------
  C13                         0.01      0.01     15.52      0.01         0.01
  C23                         0.01      0.01     22.55      0.01         0.01
  C4                          0.01      0.01     21.03      0.01         0.01
  C7                          0.01      0.01     20.78      0.01         0.01
  

  Analysis begun on:  Sun Jul 17 19:46:25 2022
  Analysis ended on:  Sun Jul 17 19:46:30 2022
  Total elapsed time: 00:00:05