
  EPA STORM WATER MANAGEMENT MODEL - VERSION 5.1 (Build 5.3.0.dev0)
  --------------------------------------------------------------

  
  *********************************************************
  NOTE: The summary statistics displayed in this report are
  based on results found at every computational time step,  
  not just on results from each reporting time step.
  *********************************************************
  
  ****************
  Analysis Options
  ****************
  Flow Units ............... CMS
  Process Models:
    Rainfall/Runoff ........ YES
    RDII ................... NO
    Snowmelt ............... NO
    Groundwater ............ NO
    Flow Routing ........... YES
    Ponding Allowed ........ NO
    Water Quality .......... NO
  Infiltration Method ...... HORTON
  Flow Routing Method ...... DYNWAVE
  Surcharge Method ......... EXTRAN
  Starting Date ............ 06/12/2007 23:10:00
  Ending Date .............. 06/13/2007 08:30:00
  Antecedent Dry Days ...... 0.0
  Report Time Step ......... 00:05:00
  Wet Time Step ............ 00:05:00
  Dry Time Step ............ 01:00:00
  Routing Time Step ........ 30.00 sec
  Variable Time Step ....... YES
  Maximum Trials ........... 8
  Number of Threads ........ 1
  Head Tolerance ........... 0.001500 m
  
  
  **************************        Volume         Depth
  Runoff Quantity Continuity     hectare-m            mm
  **************************     ---------       -------
  Total Precipitation ......         1.076         5.972
  Evaporation Loss .........         0.000         0.000
  Infiltration Loss ........         0.000         0.000
  Surface Runoff ...........         1.046         5.802
  Final Storage ............         0.032         0.175
  Continuity Error (%) .....        -0.099
  
  
  **************************        Volume        Volume
  Flow Routing Continuity        hectare-m      10^6 ltr
  **************************     ---------     ---------
  Dry Weather Inflow .......         0.176         1.765
  Wet Weather Inflow .......         1.045        10.454
  Groundwater Inflow .......         0.000         0.000
  RDII Inflow ..............         0.000         0.000
  External Inflow ..........         0.000         0.000
  External Outflow .........         0.590         5.897
  Flooding Loss ............         0.000         0.000
  Evaporation Loss .........         0.000         0.000
  Exfiltration Loss ........         0.000         0.000
  Initial Stored Volume ....         0.000         0.000
  Final Stored Volume ......         0.523         5.229
  Continuity Error (%) .....         8.936
  
  
  *************************
  Highest Continuity Errors
  *************************
  Node T2 (33.29%)
  Node T5 (19.99%)
  Node T6 (18.96%)
  Node T3 (18.25%)
  Node T4 (14.19%)
  
  
  ***************************
  Time-Step Critical Elements
  ***************************
  Link C15 (52.64%)
  
  
  ********************************
  Highest Flow Instability Indexes
  ********************************
  Link C11 (5)
  Link V3 (5)
  Link C19 (4)
  Link C3 (4)
  Link C15 (4)
  
  
  *************************
  Routing Time Step Summary
  *************************
  Minimum Time Step           :     0.16 sec
  Average Time Step           :    27.22 sec
  Maximum Time Step           :    30.00 sec
  Percent in Steady State     :     2.95
  Average Iterations per Step :     2.03
  Percent Not Converging      :     0.00
  
  
  ***************************
  Subcatchment Runoff Summary
  ***************************
  
  ------------------------------------------------------------------------------------------------------------------------------
                            Total      Total      Total      Total     Imperv       Perv      Total       Total     Peak  Runoff
                           Precip      Runon       Evap      Infil     Runoff     Runoff     Runoff      Runoff   Runoff   Coeff
  Subcatchment                 mm         mm         mm         mm         mm         mm         mm    10^6 ltr      CMS
  ------------------------------------------------------------------------------------------------------------------------------
  SC01                       5.78       0.00       0.00       0.00       5.67       0.00       5.67        1.87     0.17   0.981
  SC010                      5.78       0.00       0.00       0.00       5.63       0.00       5.63        0.66     0.06   0.974
  SC02                       6.27       0.00       0.00       0.00       6.15       0.00       6.15        1.40     0.11   0.981
  SC03                       6.13       0.00       0.00       0.00       6.05       0.00       6.05        1.09     0.08   0.987
  SC04                       6.27       0.00       0.00       0.00       6.01       0.00       6.01        0.41     0.03   0.958
  SC05                       5.78       0.00       0.00       0.00       5.66       0.00       5.66        0.88     0.08   0.979
  SC06                       5.82       0.00       0.00       0.00       5.51       0.00       5.51        1.79     0.14   0.947
  SC07                       6.27       0.00       0.00       0.00       6.01       0.00       6.01        0.29     0.02   0.958
  SC08                       6.13       0.00       0.00       0.00       5.97       0.00       5.97        1.67     0.12   0.974
  SC09                       5.82       0.00       0.00       0.00       5.63       0.00       5.63        0.39     0.03   0.967
  
  
  ******************
  Node Depth Summary
  ******************
  
  ---------------------------------------------------------------------------------
                                 Average  Maximum  Maximum  Time of Max    Reported
                                   Depth    Depth      HGL   Occurrence   Max Depth
  Node                 Type       Meters   Meters   Meters  days hr:min      Meters
  ---------------------------------------------------------------------------------
  CSO10                JUNCTION     0.11     0.19    30.19     0  03:30        0.19
  CSO7                 JUNCTION     0.08     0.11    34.11     0  03:25        0.11
  CSO8                 JUNCTION     0.12     0.20    32.20     0  03:20        0.20
  CSO9                 JUNCTION     0.09     0.15    40.15     0  03:35        0.15
  J1                   JUNCTION     0.06     0.10    34.10     0  03:30        0.10
  J10                  JUNCTION     0.09     0.14    29.14     0  03:22        0.14
  J11                  JUNCTION     0.10     0.15    31.15     0  03:21        0.15
  J12                  JUNCTION     0.12     0.17    26.17     0  03:21        0.17
  J13                  JUNCTION     0.06     0.09    29.09     0  02:16        0.09
  J14                  JUNCTION     0.11     0.17    20.17     0  07:35        0.17
  J15                  JUNCTION     0.15     0.21    15.21     0  03:32        0.21
  J16                  JUNCTION     0.06     0.10    30.10     0  03:30        0.10
  J17                  JUNCTION     0.05     0.12    20.12     0  06:35        0.12
  J18                  JUNCTION     0.05     0.09    29.09     0  03:32        0.09
  J19                  JUNCTION     0.13     0.17     8.17     0  05:46        0.17
  J2                   JUNCTION     0.05     0.07    25.07     0  05:37        0.07
  J3                   JUNCTION     0.10     0.15    18.15     0  05:35        0.15
  J4                   JUNCTION     0.09     0.13    33.13     0  03:27        0.13
  J5                   JUNCTION     0.06     0.08    32.08     0  03:26        0.08
  J6                   JUNCTION     0.05     0.09    25.09     0  05:17        0.09
  J7                   JUNCTION     0.07     0.11    39.11     0  03:37        0.11
  J8                   JUNCTION     0.09     0.14    36.14     0  03:36        0.14
  J9                   JUNCTION     0.09     0.14    29.14     0  05:49        0.14
  Out_to_WWTP          OUTFALL      0.13     0.17     6.17     0  05:46        0.17
  T1                   STORAGE      2.61     4.32    14.32     0  05:45        4.32
  T2                   STORAGE      1.56     2.66    23.66     0  07:37        2.66
  T3                   STORAGE      1.94     3.59    25.59     0  07:24        3.59
  T4                   STORAGE      1.12     1.88    28.88     0  09:05        1.88
  T5                   STORAGE      1.62     2.54    29.54     0  05:35        2.54
  T6                   STORAGE      1.64     2.91    33.91     0  09:20        2.91
  
  
  *******************
  Node Inflow Summary
  *******************
  
  -------------------------------------------------------------------------------------------------
                                  Maximum  Maximum                  Lateral       Total        Flow
                                  Lateral    Total  Time of Max      Inflow      Inflow     Balance
                                   Inflow   Inflow   Occurrence      Volume      Volume       Error
  Node                 Type           CMS      CMS  days hr:min    10^6 ltr    10^6 ltr     Percent
  -------------------------------------------------------------------------------------------------
  CSO10                JUNCTION     0.059    0.059     0  03:30       0.725       0.726       0.055
  CSO7                 JUNCTION     0.022    0.022     0  03:25       0.418       0.418       0.147
  CSO8                 JUNCTION     0.119    0.119     0  03:20        1.76        1.77       0.021
  CSO9                 JUNCTION     0.034    0.034     0  03:35       0.478       0.478       0.118
  J1                   JUNCTION     0.082    0.082     0  03:30        1.14        1.14       0.059
  J10                  JUNCTION     0.086    0.197     0  03:20        1.26        3.03       0.166
  J11                  JUNCTION     0.000    0.119     0  03:20           0        1.76       0.300
  J12                  JUNCTION     0.000    0.270     0  03:20           0        4.84       0.269
  J13                  JUNCTION     0.108    0.108     0  02:15        1.61        1.61      -0.172
  J14                  JUNCTION     0.000    0.161     0  07:33           0        2.44       0.132
  J15                  JUNCTION     0.000    0.379     0  03:30           0        7.07       0.928
  J16                  JUNCTION     0.171    0.171     0  03:30        2.12        2.13       0.039
  J17                  JUNCTION     0.000    0.098     0  06:30           0       0.557       0.542
  J18                  JUNCTION     0.000    0.059     0  03:30           0       0.725       0.086
  J19                  JUNCTION     0.000    0.251     0  05:46           0        5.91       0.189
  J2                   JUNCTION     0.000    0.028     0  05:35           0       0.688       0.625
  J3                   JUNCTION     0.000    0.217     0  05:28           0         3.7       0.716
  J4                   JUNCTION     0.000    0.022     0  03:25           0       0.418       0.857
  J5                   JUNCTION     0.030    0.051     0  03:25       0.473       0.887       0.165
  J6                   JUNCTION     0.000    0.048     0  05:10           0       0.573       0.179
  J7                   JUNCTION     0.000    0.034     0  03:35           0       0.478       0.570
  J8                   JUNCTION     0.148    0.181     0  03:35        2.22         2.7       0.213
  J9                   JUNCTION     0.000    0.132     0  05:35           0        1.83       0.837
  Out_to_WWTP          OUTFALL      0.000    0.251     0  05:46           0         5.9       0.000
  T1                   STORAGE      0.000    0.372     0  03:32           0        7.01       9.315
  T2                   STORAGE      0.000    0.107     0  02:16           0        1.62      49.898
  T3                   STORAGE      0.000    0.259     0  03:21           0        4.82      22.317
  T4                   STORAGE      0.000    0.051     0  03:26           0       0.886      16.532
  T5                   STORAGE      0.000    0.082     0  03:31           0        1.14      24.982
  T6                   STORAGE      0.000    0.180     0  03:36           0        2.69      23.399
  
  
  **********************
  Node Surcharge Summary
  **********************
  
  No nodes were surcharged.
  
  
  *********************
  Node Flooding Summary
  *********************
  
  No nodes were flooded.
  
  
  **********************
  Storage Volume Summary
  **********************
  
  --------------------------------------------------------------------------------------------------
                         Average     Avg  Evap Exfil       Maximum     Max    Time of Max    Maximum
                          Volume    Pcnt  Pcnt  Pcnt        Volume    Pcnt     Occurrence    Outflow
  Storage Unit           1000 m3    Full  Loss  Loss       1000 m3    Full    days hr:min        CMS
  --------------------------------------------------------------------------------------------------
  T1                       0.365      52     0     0         0.604      86       0  05:45      0.251
  T2                       0.313      31     0     0         0.533      53       0  07:37      0.098
  T3                       1.011      39     0     0         1.867      72       0  07:24      0.161
  T4                       0.112      22     0     0         0.188      38       0  09:05      0.048
  T5                       0.162      32     0     0         0.254      51       0  05:35      0.028
  T6                       0.197      33     0     0         0.349      58       0  09:20      0.132
  
  
  ***********************
  Outfall Loading Summary
  ***********************
  
  -----------------------------------------------------------
                         Flow       Avg       Max       Total
                         Freq      Flow      Flow      Volume
  Outfall Node           Pcnt       CMS       CMS    10^6 ltr
  -----------------------------------------------------------
  Out_to_WWTP           98.38     0.177     0.251       5.897
  -----------------------------------------------------------
  System                98.38     0.177     0.251       5.897
  
  
  ********************
  Link Flow Summary
  ********************
  
  -----------------------------------------------------------------------------
                                 Maximum  Time of Max   Maximum    Max/    Max/
                                  |Flow|   Occurrence   |Veloc|    Full    Full
  Link                 Type          CMS  days hr:min     m/sec    Flow   Depth
  -----------------------------------------------------------------------------
  C1                   CONDUIT     0.028     0  05:37      0.95    0.01    0.11
  C10                  CONDUIT     0.180     0  03:36      2.35    0.02    0.55
  C11                  CONDUIT     0.215     0  05:35      1.80    0.01    0.08
  C12                  CONDUIT     0.130     0  05:52      1.34    0.01    0.08
  C13                  CONDUIT     0.259     0  03:21      1.52    0.02    0.54
  C14                  CONDUIT     0.251     0  05:46      2.03    0.01    0.08
  C15                  CONDUIT     0.119     0  03:20      2.08    0.38    0.38
  C16                  CONDUIT     0.115     0  03:22      1.14    0.01    0.07
  C17                  CONDUIT     0.193     0  03:22      1.81    0.01    0.08
  C18                  CONDUIT     0.107     0  02:16      1.00    0.00    0.52
  C19                  CONDUIT     0.095     0  06:35      1.40    0.03    0.15
  C2                   CONDUIT     0.048     0  05:18      1.53    0.05    0.20
  C20                  CONDUIT     0.171     0  03:31      1.58    0.01    0.08
  C21                  CONDUIT     0.059     0  03:30      1.40    0.34    0.32
  C22                  CONDUIT     0.059     0  03:32      0.93    0.03    0.19
  C23                  CONDUIT     0.372     0  03:32      1.11    0.04    0.57
  C3                   CONDUIT     0.161     0  07:36      2.04    0.06    0.16
  C4                   CONDUIT     0.082     0  03:31      1.11    0.02    0.55
  C5                   CONDUIT     0.022     0  03:25      1.24    0.37    0.46
  C6                   CONDUIT     0.021     0  03:27      0.98    0.34    0.35
  C7                   CONDUIT     0.051     0  03:26      0.83    0.01    0.54
  C8                   CONDUIT     0.034     0  03:35      1.74    0.42    0.42
  C9                   CONDUIT     0.033     0  03:37      0.84    0.11    0.26
  V1                   ORIFICE     0.251     0  05:46                      1.00
  V2                   ORIFICE     0.098     0  06:30                      1.00
  V3                   ORIFICE     0.161     0  07:33                      1.00
  V4                   ORIFICE     0.048     0  05:10                      1.00
  V5                   ORIFICE     0.028     0  05:35                      1.00
  V6                   ORIFICE     0.132     0  05:35                      1.00
  
  
  ***************************
  Flow Classification Summary
  ***************************
  
  -------------------------------------------------------------------------------------
                      Adjusted    ---------- Fraction of Time in Flow Class ---------- 
                       /Actual         Up    Down  Sub   Sup   Up    Down  Norm  Inlet 
  Conduit               Length    Dry  Dry   Dry   Crit  Crit  Crit  Crit  Ltd   Ctrl  
  -------------------------------------------------------------------------------------
  C1                      1.00   0.00  0.00  0.00  0.57  0.43  0.00  0.00  0.91  0.00
  C10                     1.00   0.00  0.00  0.00  0.87  0.13  0.00  0.00  0.95  0.00
  C11                     1.00   0.00  0.00  0.00  0.33  0.66  0.00  0.00  1.00  0.00
  C12                     1.00   0.00  0.00  0.00  0.77  0.23  0.00  0.00  0.92  0.00
  C13                     1.00   0.00  0.00  0.00  0.85  0.15  0.00  0.00  0.86  0.00
  C14                     1.00   0.01  0.00  0.00  0.01  0.98  0.00  0.00  0.16  0.00
  C15                     1.00   0.02  0.00  0.00  0.00  0.98  0.00  0.00  0.00  0.00
  C16                     1.00   0.00  0.02  0.00  0.21  0.77  0.00  0.00  0.13  0.00
  C17                     1.00   0.00  0.00  0.00  0.06  0.94  0.00  0.00  0.98  0.00
  C18                     1.00   0.00  0.00  0.00  0.86  0.14  0.00  0.00  0.92  0.00
  C19                     1.00   0.00  0.00  0.00  0.99  0.01  0.00  0.00  1.00  0.00
  C2                      1.00   0.00  0.00  0.00  0.56  0.44  0.00  0.00  0.99  0.00
  C20                     1.00   0.00  0.00  0.00  0.40  0.60  0.00  0.00  0.99  0.00
  C21                     1.00   0.00  0.00  0.00  0.00  1.00  0.00  0.00  0.00  0.00
  C22                     1.00   0.00  0.00  0.00  1.00  0.00  0.00  0.00  1.00  0.00
  C23                     1.00   0.00  0.00  0.00  0.84  0.16  0.00  0.00  0.91  0.00
  C3                      1.00   0.00  0.01  0.00  0.06  0.93  0.00  0.00  0.40  0.00
  C4                      1.00   0.00  0.00  0.00  0.86  0.14  0.00  0.00  0.94  0.00
  C5                      1.00   0.00  0.00  0.00  0.74  0.26  0.00  0.00  0.97  0.00
  C6                      1.00   0.00  0.00  0.00  0.02  0.98  0.00  0.00  0.00  0.00
  C7                      1.00   0.00  0.00  0.00  0.86  0.14  0.00  0.00  0.93  0.00
  C8                      1.00   0.00  0.00  0.00  0.00  1.00  0.00  0.00  0.00  0.00
  C9                      1.00   0.00  0.00  0.00  1.00  0.00  0.00  0.00  1.00  0.00
  
  
  *************************
  Conduit Surcharge Summary
  *************************
  
  ----------------------------------------------------------------------------
                                                           Hours        Hours 
                         --------- Hours Full --------   Above Full   Capacity
  Conduit                Both Ends  Upstream  Dnstream   Normal Flow   Limited
  ----------------------------------------------------------------------------
  C10                         0.01      0.01      5.77      0.01         0.01
  C13                         0.01      0.01      5.29      0.01         0.01
  C18                         0.01      0.01      4.49      0.01         0.01
  C23                         0.01      0.01      6.68      0.01         0.01
  C4                          0.01      0.01      6.56      0.01         0.01
  C7                          0.01      0.01      5.81      0.01         0.01
  

  Analysis begun on:  Sun Jul 17 19:58:13 2022
  Analysis ended on:  Sun Jul 17 19:58:13 2022
  Total elapsed time: < 1 sec