
  EPA STORM WATER MANAGEMENT MODEL - VERSION 5.1 (Build 5.3.0.dev0)
  --------------------------------------------------------------

  
  *********************************************************
  NOTE: The summary statistics displayed in this report are
  based on results found at every computational time step,  
  not just on results from each reporting time step.
  *********************************************************
  
  ****************
  Analysis Options
  ****************
  Flow Units ............... CMS
  Process Models:
    Rainfall/Runoff ........ YES
    RDII ................... NO
    Snowmelt ............... NO
    Groundwater ............ NO
    Flow Routing ........... YES
    Ponding Allowed ........ NO
    Water Quality .......... NO
  Infiltration Method ...... HORTON
  Flow Routing Method ...... DYNWAVE
  Surcharge Method ......... EXTRAN
  Starting Date ............ 03/29/2008 20:50:00
  Ending Date .............. 03/30/2008 06:50:00
  Antecedent Dry Days ...... 0.0
  Report Time Step ......... 00:05:00
  Wet Time Step ............ 00:05:00
  Dry Time Step ............ 01:00:00
  Routing Time Step ........ 30.00 sec
  Variable Time Step ....... YES
  Maximum Trials ........... 8
  Number of Threads ........ 1
  Head Tolerance ........... 0.001500 m
  
  
  **************************        Volume         Depth
  Runoff Quantity Continuity     hectare-m            mm
  **************************     ---------       -------
  Total Precipitation ......         0.930         5.159
  Evaporation Loss .........         0.000         0.000
  Infiltration Loss ........         0.000         0.000
  Surface Runoff ...........         0.907         5.033
  Final Storage ............         0.024         0.135
  Continuity Error (%) .....        -0.174
  
  
  **************************        Volume        Volume
  Flow Routing Continuity        hectare-m      10^6 ltr
  **************************     ---------     ---------
  Dry Weather Inflow .......         0.143         1.426
  Wet Weather Inflow .......         0.907         9.067
  Groundwater Inflow .......         0.000         0.000
  RDII Inflow ..............         0.000         0.000
  External Inflow ..........         0.000         0.000
  External Outflow .........         0.672         6.721
  Flooding Loss ............         0.000         0.000
  Evaporation Loss .........         0.000         0.000
  Exfiltration Loss ........         0.000         0.000
  Initial Stored Volume ....         0.000         0.000
  Final Stored Volume ......         0.366         3.656
  Continuity Error (%) .....         1.102
  
  
  *************************
  Highest Continuity Errors
  *************************
  Node T2 (28.99%)
  Node T4 (22.94%)
  Node T5 (13.75%)
  Node T3 (11.91%)
  Node T6 (5.02%)
  
  
  ***************************
  Time-Step Critical Elements
  ***************************
  Link C15 (32.82%)
  
  
  ********************************
  Highest Flow Instability Indexes
  ********************************
  Link C13 (3)
  Link C12 (3)
  Link C20 (2)
  Link V6 (2)
  Link C23 (2)
  
  
  *************************
  Routing Time Step Summary
  *************************
  Minimum Time Step           :     0.70 sec
  Average Time Step           :    27.53 sec
  Maximum Time Step           :    30.00 sec
  Percent in Steady State     :     0.58
  Average Iterations per Step :     2.01
  Percent Not Converging      :     0.00
  
  
  ***************************
  Subcatchment Runoff Summary
  ***************************
  
  ------------------------------------------------------------------------------------------------------------------------------
                            Total      Total      Total      Total     Imperv       Perv      Total       Total     Peak  Runoff
                           Precip      Runon       Evap      Infil     Runoff     Runoff     Runoff      Runoff   Runoff   Coeff
  Subcatchment                 mm         mm         mm         mm         mm         mm         mm    10^6 ltr      CMS
  ------------------------------------------------------------------------------------------------------------------------------
  SC01                       5.29       0.00       0.00       0.00       5.19       0.00       5.19        1.71     0.20   0.980
  SC010                      5.29       0.00       0.00       0.00       5.15       0.00       5.15        0.61     0.07   0.974
  SC02                       4.99       0.00       0.00       0.00       4.92       0.00       4.92        1.12     0.21   0.985
  SC03                       5.43       0.00       0.00       0.00       5.37       0.00       5.37        0.97     0.14   0.989
  SC04                       4.99       0.00       0.00       0.00       4.85       0.00       4.85        0.33     0.04   0.972
  SC05                       5.29       0.00       0.00       0.00       5.18       0.00       5.18        0.81     0.09   0.979
  SC06                       4.79       0.00       0.00       0.00       4.56       0.00       4.56        1.48     0.12   0.952
  SC07                       4.99       0.00       0.00       0.00       4.85       0.00       4.85        0.23     0.03   0.972
  SC08                       5.43       0.00       0.00       0.00       5.32       0.00       5.32        1.49     0.17   0.980
  SC09                       4.79       0.00       0.00       0.00       4.65       0.00       4.65        0.32     0.03   0.970
  
  
  ******************
  Node Depth Summary
  ******************
  
  ---------------------------------------------------------------------------------
                                 Average  Maximum  Maximum  Time of Max    Reported
                                   Depth    Depth      HGL   Occurrence   Max Depth
  Node                 Type       Meters   Meters   Meters  days hr:min      Meters
  ---------------------------------------------------------------------------------
  CSO10                JUNCTION     0.10     0.21    30.21     0  02:35        0.21
  CSO7                 JUNCTION     0.07     0.14    34.14     0  01:31        0.14
  CSO8                 JUNCTION     0.11     0.25    32.25     0  01:30        0.24
  CSO9                 JUNCTION     0.08     0.15    40.15     0  01:36        0.15
  J1                   JUNCTION     0.06     0.11    34.11     0  01:35        0.11
  J10                  JUNCTION     0.08     0.17    29.17     0  01:33        0.17
  J11                  JUNCTION     0.08     0.18    31.18     0  01:34        0.18
  J12                  JUNCTION     0.12     0.20    26.20     0  01:37        0.20
  J13                  JUNCTION     0.05     0.12    29.12     0  01:26        0.12
  J14                  JUNCTION     0.12     0.16    20.16     0  03:32        0.16
  J15                  JUNCTION     0.15     0.23    15.23     0  02:36        0.22
  J16                  JUNCTION     0.06     0.11    30.11     0  01:31        0.11
  J17                  JUNCTION     0.05     0.12    20.12     0  03:43        0.12
  J18                  JUNCTION     0.05     0.10    29.10     0  02:36        0.10
  J19                  JUNCTION     0.14     0.17     8.17     0  03:58        0.17
  J2                   JUNCTION     0.06     0.07    25.07     0  03:45        0.07
  J3                   JUNCTION     0.10     0.13    18.13     0  04:19        0.13
  J4                   JUNCTION     0.08     0.16    33.16     0  01:36        0.16
  J5                   JUNCTION     0.05     0.09    32.09     0  01:35        0.09
  J6                   JUNCTION     0.04     0.06    25.06     0  02:55        0.06
  J7                   JUNCTION     0.06     0.11    39.11     0  01:41        0.11
  J8                   JUNCTION     0.08     0.13    36.13     0  01:41        0.13
  J9                   JUNCTION     0.09     0.13    29.13     0  03:44        0.13
  Out_to_WWTP          OUTFALL      0.14     0.17     6.17     0  03:58        0.17
  T1                   STORAGE      2.75     4.68    14.68     0  03:57        4.67
  T2                   STORAGE      1.45     1.93    22.93     0  03:35        1.93
  T3                   STORAGE      1.65     2.47    24.47     0  04:26        2.47
  T4                   STORAGE      1.72     2.43    29.43     0  04:35        2.43
  T5                   STORAGE      1.57     2.65    29.65     0  03:43        2.65
  T6                   STORAGE      0.97     2.10    33.10     0  03:37        2.10
  
  
  *******************
  Node Inflow Summary
  *******************
  
  -------------------------------------------------------------------------------------------------
                                  Maximum  Maximum                  Lateral       Total        Flow
                                  Lateral    Total  Time of Max      Inflow      Inflow     Balance
                                   Inflow   Inflow   Occurrence      Volume      Volume       Error
  Node                 Type           CMS      CMS  days hr:min    10^6 ltr    10^6 ltr     Percent
  -------------------------------------------------------------------------------------------------
  CSO10                JUNCTION     0.070    0.070     0  02:35       0.658       0.659       0.053
  CSO7                 JUNCTION     0.033    0.033     0  01:30       0.341       0.341       0.121
  CSO8                 JUNCTION     0.169    0.169     0  01:30        1.52        1.52       0.014
  CSO9                 JUNCTION     0.034    0.034     0  01:35       0.395       0.396       0.093
  J1                   JUNCTION     0.097    0.097     0  01:35        1.02        1.02      -0.015
  J10                  JUNCTION     0.144    0.298     0  01:31        1.11        2.63       0.118
  J11                  JUNCTION     0.000    0.169     0  01:31           0        1.52       0.390
  J12                  JUNCTION     0.000    0.351     0  01:34           0        4.65       0.284
  J13                  JUNCTION     0.208    0.208     0  01:25         1.3         1.3      -0.398
  J14                  JUNCTION     0.000    0.133     0  04:27           0        3.17       0.165
  J15                  JUNCTION     0.000    0.474     0  02:35           0        7.38       0.648
  J16                  JUNCTION     0.207    0.207     0  01:30        1.92        1.92      -0.003
  J17                  JUNCTION     0.000    0.087     0  03:35           0       0.565      -0.232
  J18                  JUNCTION     0.000    0.069     0  02:35           0       0.658       0.109
  J19                  JUNCTION     0.000    0.262     0  03:57           0        6.73       0.130
  J2                   JUNCTION     0.000    0.029     0  03:43           0       0.752       0.444
  J3                   JUNCTION     0.000    0.171     0  04:17           0        4.26       0.598
  J4                   JUNCTION     0.000    0.032     0  01:31           0       0.341       0.966
  J5                   JUNCTION     0.045    0.076     0  01:34       0.383       0.721       0.103
  J6                   JUNCTION     0.000    0.017     0  02:55           0       0.342       0.554
  J7                   JUNCTION     0.000    0.034     0  01:37           0       0.395       0.694
  J8                   JUNCTION     0.130    0.164     0  01:40        1.84        2.23       0.181
  J9                   JUNCTION     0.000    0.113     0  03:37           0        2.04       0.667
  Out_to_WWTP          OUTFALL      0.000    0.262     0  03:58           0        6.72       0.000
  T1                   STORAGE      0.000    0.447     0  02:36           0        7.33       4.924
  T2                   STORAGE      0.000    0.208     0  01:27           0         1.3      40.816
  T3                   STORAGE      0.000    0.344     0  01:37           0        4.63      13.524
  T4                   STORAGE      0.000    0.076     0  01:35           0        0.72      29.766
  T5                   STORAGE      0.000    0.097     0  01:35           0        1.02      15.946
  T6                   STORAGE      0.000    0.162     0  01:41           0        2.23       5.288
  
  
  **********************
  Node Surcharge Summary
  **********************
  
  No nodes were surcharged.
  
  
  *********************
  Node Flooding Summary
  *********************
  
  No nodes were flooded.
  
  
  **********************
  Storage Volume Summary
  **********************
  
  --------------------------------------------------------------------------------------------------
                         Average     Avg  Evap Exfil       Maximum     Max    Time of Max    Maximum
                          Volume    Pcnt  Pcnt  Pcnt        Volume    Pcnt     Occurrence    Outflow
  Storage Unit           1000 m3    Full  Loss  Loss       1000 m3    Full    days hr:min        CMS
  --------------------------------------------------------------------------------------------------
  T1                       0.385      55     0     0         0.655      94       0  03:57      0.262
  T2                       0.289      29     0     0         0.385      39       0  03:35      0.087
  T3                       0.860      33     0     0         1.285      49       0  04:26      0.133
  T4                       0.172      34     0     0         0.243      49       0  04:35      0.017
  T5                       0.157      31     0     0         0.265      53       0  03:43      0.029
  T6                       0.117      19     0     0         0.252      42       0  03:37      0.113
  
  
  ***********************
  Outfall Loading Summary
  ***********************
  
  -----------------------------------------------------------
                         Flow       Avg       Max       Total
                         Freq      Flow      Flow      Volume
  Outfall Node           Pcnt       CMS       CMS    10^6 ltr
  -----------------------------------------------------------
  Out_to_WWTP           99.16     0.188     0.262       6.721
  -----------------------------------------------------------
  System                99.16     0.188     0.262       6.721
  
  
  ********************
  Link Flow Summary
  ********************
  
  -----------------------------------------------------------------------------
                                 Maximum  Time of Max   Maximum    Max/    Max/
                                  |Flow|   Occurrence   |Veloc|    Full    Full
  Link                 Type          CMS  days hr:min     m/sec    Flow   Depth
  -----------------------------------------------------------------------------
  C1                   CONDUIT     0.029     0  03:45      0.98    0.01    0.10
  C10                  CONDUIT     0.162     0  01:41      1.55    0.02    0.54
  C11                  CONDUIT     0.171     0  04:20      1.75    0.01    0.09
  C12                  CONDUIT     0.113     0  03:44      1.23    0.01    0.08
  C13                  CONDUIT     0.344     0  01:37      1.88    0.02    0.55
  C14                  CONDUIT     0.262     0  03:58      2.06    0.01    0.08
  C15                  CONDUIT     0.169     0  01:31      2.32    0.54    0.46
  C16                  CONDUIT     0.164     0  01:34      1.25    0.02    0.09
  C17                  CONDUIT     0.295     0  01:33      2.10    0.01    0.09
  C18                  CONDUIT     0.208     0  01:27      5.94    0.01    0.50
  C19                  CONDUIT     0.085     0  03:43      1.12    0.03    0.17
  C2                   CONDUIT     0.016     0  02:55      0.91    0.02    0.15
  C20                  CONDUIT     0.206     0  01:31      4.25    0.01    0.09
  C21                  CONDUIT     0.069     0  02:35      1.47    0.40    0.35
  C22                  CONDUIT     0.069     0  02:36      1.06    0.03    0.20
  C23                  CONDUIT     0.447     0  02:36      1.43    0.05    0.58
  C3                   CONDUIT     0.133     0  04:27      2.02    0.05    0.14
  C4                   CONDUIT     0.097     0  01:35      4.82    0.02    0.55
  C5                   CONDUIT     0.032     0  01:31      1.18    0.55    0.58
  C6                   CONDUIT     0.032     0  01:36      1.10    0.50    0.43
  C7                   CONDUIT     0.076     0  01:35      1.35    0.02    0.54
  C8                   CONDUIT     0.034     0  01:37      1.10    0.43    0.42
  C9                   CONDUIT     0.034     0  01:41      0.89    0.12    0.25
  V1                   ORIFICE     0.262     0  03:57                      1.00
  V2                   ORIFICE     0.087     0  03:35                      1.00
  V3                   ORIFICE     0.133     0  04:27                      1.00
  V4                   ORIFICE     0.017     0  02:55                      1.00
  V5                   ORIFICE     0.029     0  03:43                      1.00
  V6                   ORIFICE     0.113     0  03:37                      1.00
  
  
  ***************************
  Flow Classification Summary
  ***************************
  
  -------------------------------------------------------------------------------------
                      Adjusted    ---------- Fraction of Time in Flow Class ---------- 
                       /Actual         Up    Down  Sub   Sup   Up    Down  Norm  Inlet 
  Conduit               Length    Dry  Dry   Dry   Crit  Crit  Crit  Crit  Ltd   Ctrl  
  -------------------------------------------------------------------------------------
  C1                      1.00   0.00  0.00  0.00  0.74  0.26  0.00  0.00  0.96  0.00
  C10                     1.00   0.00  0.00  0.00  0.97  0.03  0.00  0.00  0.98  0.00
  C11                     1.00   0.00  0.00  0.00  0.30  0.70  0.00  0.00  1.00  0.00
  C12                     1.00   0.00  0.00  0.00  0.54  0.46  0.00  0.00  0.76  0.00
  C13                     1.00   0.00  0.00  0.00  0.87  0.13  0.00  0.00  0.88  0.00
  C14                     1.00   0.01  0.00  0.00  0.01  0.99  0.00  0.00  0.55  0.00
  C15                     1.00   0.06  0.00  0.00  0.00  0.93  0.00  0.00  0.00  0.00
  C16                     1.00   0.00  0.06  0.00  0.32  0.62  0.00  0.00  0.25  0.00
  C17                     1.00   0.00  0.00  0.00  0.39  0.61  0.00  0.00  0.96  0.00
  C18                     1.00   0.00  0.00  0.00  0.90  0.10  0.00  0.00  0.98  0.00
  C19                     1.00   0.00  0.00  0.00  0.99  0.01  0.00  0.00  1.00  0.00
  C2                      1.00   0.00  0.00  0.00  0.91  0.09  0.00  0.00  0.96  0.00
  C20                     1.00   0.00  0.00  0.00  0.60  0.40  0.00  0.00  0.98  0.00
  C21                     1.00   0.00  0.00  0.00  0.00  1.00  0.00  0.00  0.00  0.00
  C22                     1.00   0.00  0.00  0.00  0.93  0.07  0.00  0.00  1.00  0.00
  C23                     1.00   0.00  0.00  0.00  0.89  0.11  0.00  0.00  0.95  0.00
  C3                      1.00   0.00  0.00  0.00  0.07  0.92  0.00  0.00  0.12  0.00
  C4                      1.00   0.00  0.00  0.00  0.96  0.04  0.00  0.00  0.98  0.00
  C5                      1.00   0.00  0.00  0.00  0.87  0.13  0.00  0.00  0.98  0.00
  C6                      1.00   0.00  0.00  0.00  0.01  0.99  0.00  0.00  0.00  0.00
  C7                      1.00   0.00  0.00  0.00  0.89  0.11  0.00  0.00  0.97  0.00
  C8                      1.00   0.00  0.00  0.00  0.04  0.96  0.00  0.00  0.00  0.00
  C9                      1.00   0.00  0.00  0.00  1.00  0.00  0.00  0.00  1.00  0.00
  
  
  *************************
  Conduit Surcharge Summary
  *************************
  
  ----------------------------------------------------------------------------
                                                           Hours        Hours 
                         --------- Hours Full --------   Above Full   Capacity
  Conduit                Both Ends  Upstream  Dnstream   Normal Flow   Limited
  ----------------------------------------------------------------------------
  C10                         0.01      0.01      1.73      0.01         0.01
  C13                         0.01      0.01      4.88      0.01         0.01
  C23                         0.01      0.01      8.24      0.01         0.01
  C4                          0.01      0.01      8.24      0.01         0.01
  C7                          0.01      0.01      7.94      0.01         0.01
  

  Analysis begun on:  Sun Jul 17 20:41:08 2022
  Analysis ended on:  Sun Jul 17 20:41:10 2022
  Total elapsed time: 00:00:02