
  EPA STORM WATER MANAGEMENT MODEL - VERSION 5.1 (Build 5.3.0.dev0)
  --------------------------------------------------------------

  
  *********************************************************
  NOTE: The summary statistics displayed in this report are
  based on results found at every computational time step,  
  not just on results from each reporting time step.
  *********************************************************
  
  ****************
  Analysis Options
  ****************
  Flow Units ............... CMS
  Process Models:
    Rainfall/Runoff ........ YES
    RDII ................... NO
    Snowmelt ............... NO
    Groundwater ............ NO
    Flow Routing ........... YES
    Ponding Allowed ........ NO
    Water Quality .......... NO
  Infiltration Method ...... HORTON
  Flow Routing Method ...... DYNWAVE
  Surcharge Method ......... EXTRAN
  Starting Date ............ 12/18/2009 15:00:00
  Ending Date .............. 12/19/2009 01:45:00
  Antecedent Dry Days ...... 0.0
  Report Time Step ......... 00:05:00
  Wet Time Step ............ 00:05:00
  Dry Time Step ............ 01:00:00
  Routing Time Step ........ 30.00 sec
  Variable Time Step ....... YES
  Maximum Trials ........... 8
  Number of Threads ........ 1
  Head Tolerance ........... 0.001500 m
  
  
  **************************        Volume         Depth
  Runoff Quantity Continuity     hectare-m            mm
  **************************     ---------       -------
  Total Precipitation ......         1.512         8.389
  Evaporation Loss .........         0.000         0.000
  Infiltration Loss ........         0.000         0.000
  Surface Runoff ...........         1.481         8.221
  Final Storage ............         0.031         0.172
  Continuity Error (%) .....        -0.050
  
  
  **************************        Volume        Volume
  Flow Routing Continuity        hectare-m      10^6 ltr
  **************************     ---------     ---------
  Dry Weather Inflow .......         0.257         2.570
  Wet Weather Inflow .......         1.481        14.810
  Groundwater Inflow .......         0.000         0.000
  RDII Inflow ..............         0.000         0.000
  External Inflow ..........         0.000         0.000
  External Outflow .........         0.807         8.066
  Flooding Loss ............         0.026         0.256
  Evaporation Loss .........         0.000         0.000
  Exfiltration Loss ........         0.000         0.000
  Initial Stored Volume ....         0.000         0.000
  Final Stored Volume ......         0.720         7.198
  Continuity Error (%) .....        10.704
  
  
  *************************
  Highest Continuity Errors
  *************************
  Node T2 (32.25%)
  Node T4 (21.38%)
  Node T3 (21.22%)
  Node T5 (17.28%)
  Node J12 (9.88%)
  
  
  ***************************
  Time-Step Critical Elements
  ***************************
  Link C15 (38.11%)
  
  
  ********************************
  Highest Flow Instability Indexes
  ********************************
  Link C13 (8)
  Link C19 (5)
  Link C23 (4)
  Link C11 (4)
  Link C12 (4)
  
  
  *************************
  Routing Time Step Summary
  *************************
  Minimum Time Step           :     0.10 sec
  Average Time Step           :    27.69 sec
  Maximum Time Step           :    30.00 sec
  Percent in Steady State     :     1.55
  Average Iterations per Step :     2.02
  Percent Not Converging      :     0.00
  
  
  ***************************
  Subcatchment Runoff Summary
  ***************************
  
  ------------------------------------------------------------------------------------------------------------------------------
                            Total      Total      Total      Total     Imperv       Perv      Total       Total     Peak  Runoff
                           Precip      Runon       Evap      Infil     Runoff     Runoff     Runoff      Runoff   Runoff   Coeff
  Subcatchment                 mm         mm         mm         mm         mm         mm         mm    10^6 ltr      CMS
  ------------------------------------------------------------------------------------------------------------------------------
  SC01                       8.39       0.00       0.00       0.00       8.29       0.00       8.29        2.73     0.19   0.988
  SC010                      8.39       0.00       0.00       0.00       8.25       0.00       8.25        0.97     0.06   0.984
  SC02                      10.95       0.00       0.00       0.00      10.84       0.00      10.84        2.47     0.15   0.990
  SC03                       6.65       0.00       0.00       0.00       6.57       0.00       6.57        1.18     0.09   0.987
  SC04                      10.95       0.00       0.00       0.00      10.71       0.00      10.71        0.74     0.04   0.978
  SC05                       8.39       0.00       0.00       0.00       8.28       0.00       8.28        1.29     0.09   0.987
  SC06                       8.18       0.00       0.00       0.00       7.85       0.00       7.85        2.55     0.15   0.959
  SC07                      10.95       0.00       0.00       0.00      10.71       0.00      10.71        0.51     0.03   0.978
  SC08                       6.65       0.00       0.00       0.00       6.50       0.00       6.50        1.82     0.12   0.977
  SC09                       8.18       0.00       0.00       0.00       7.98       0.00       7.98        0.55     0.03   0.975
  
  
  ******************
  Node Depth Summary
  ******************
  
  ---------------------------------------------------------------------------------
                                 Average  Maximum  Maximum  Time of Max    Reported
                                   Depth    Depth      HGL   Occurrence   Max Depth
  Node                 Type       Meters   Meters   Meters  days hr:min      Meters
  ---------------------------------------------------------------------------------
  CSO10                JUNCTION     0.12     0.21    30.21     0  02:21        0.21
  CSO7                 JUNCTION     0.10     0.14    34.14     0  05:00        0.14
  CSO8                 JUNCTION     0.12     0.22    32.22     0  02:25        0.21
  CSO9                 JUNCTION     0.10     0.16    40.16     0  02:35        0.16
  J1                   JUNCTION     0.07     0.11    34.11     0  01:56        0.11
  J10                  JUNCTION     0.09     0.15    29.15     0  02:27        0.15
  J11                  JUNCTION     0.10     0.16    31.16     0  02:27        0.16
  J12                  JUNCTION     0.28     0.77    26.77     0  10:06        0.77
  J13                  JUNCTION     0.07     0.11    29.11     0  05:02        0.11
  J14                  JUNCTION     0.10     0.17    20.17     0  04:53        0.17
  J15                  JUNCTION     0.16     0.22    15.22     0  02:26        0.22
  J16                  JUNCTION     0.07     0.11    30.11     0  01:55        0.11
  J17                  JUNCTION     0.06     0.15    20.15     0  07:05        0.15
  J18                  JUNCTION     0.06     0.09    29.09     0  02:25        0.09
  J19                  JUNCTION     0.15     0.17     8.17     0  05:12        0.17
  J2                   JUNCTION     0.06     0.07    25.07     0  07:19        0.07
  J3                   JUNCTION     0.10     0.14    18.14     0  05:05        0.14
  J4                   JUNCTION     0.12     0.17    33.17     0  05:07        0.17
  J5                   JUNCTION     0.07     0.10    32.10     0  05:06        0.10
  J6                   JUNCTION     0.05     0.11    25.11     0  04:15        0.11
  J7                   JUNCTION     0.08     0.12    39.12     0  02:37        0.12
  J8                   JUNCTION     0.10     0.15    36.15     0  03:05        0.15
  J9                   JUNCTION     0.11     0.16    29.16     0  07:13        0.16
  Out_to_WWTP          OUTFALL      0.15     0.17     6.17     0  05:12        0.17
  T1                   STORAGE      3.38     4.81    14.81     0  05:11        4.81
  T2                   STORAGE      2.97     5.00    26.00     0  06:44        5.00
  T3                   STORAGE      2.71     4.78    26.78     0  10:10        4.78
  T4                   STORAGE      3.09     5.00    32.00     0  06:00        5.00
  T5                   STORAGE      2.84     4.24    31.24     0  07:17        4.24
  T6                   STORAGE      2.89     4.91    35.91     0  07:05        4.91
  
  
  *******************
  Node Inflow Summary
  *******************
  
  -------------------------------------------------------------------------------------------------
                                  Maximum  Maximum                  Lateral       Total        Flow
                                  Lateral    Total  Time of Max      Inflow      Inflow     Balance
                                   Inflow   Inflow   Occurrence      Volume      Volume       Error
  Node                 Type           CMS      CMS  days hr:min    10^6 ltr    10^6 ltr     Percent
  -------------------------------------------------------------------------------------------------
  CSO10                JUNCTION     0.066    0.066     0  02:20        1.06        1.06      -0.047
  CSO7                 JUNCTION     0.036    0.036     0  05:00       0.703       0.704      -0.040
  CSO8                 JUNCTION     0.135    0.135     0  02:25        1.93        1.93      -0.055
  CSO9                 JUNCTION     0.039    0.039     0  02:35       0.682       0.682      -0.017
  J1                   JUNCTION     0.101    0.101     0  01:55        1.67        1.67      -0.189
  J10                  JUNCTION     0.098    0.228     0  02:25        1.44        3.37      -0.118
  J11                  JUNCTION     0.000    0.135     0  02:25           0        1.93       0.050
  J12                  JUNCTION     0.000    0.325     0  02:55           0        6.87      10.961
  J13                  JUNCTION     0.164    0.164     0  05:00        2.78        2.78      -0.291
  J14                  JUNCTION     0.000    0.148     0  05:05           0         2.4       0.313
  J15                  JUNCTION     0.000    0.425     0  02:25           0        9.03       0.770
  J16                  JUNCTION     0.201    0.201     0  01:55        3.11        3.11      -0.138
  J17                  JUNCTION     0.000    0.140     0  07:00           0       0.829       1.343
  J18                  JUNCTION     0.000    0.066     0  02:21           0        1.06      -0.038
  J19                  JUNCTION     0.000    0.265     0  05:11           0        8.08       0.128
  J2                   JUNCTION     0.000    0.036     0  07:17           0        1.09       0.411
  J3                   JUNCTION     0.000    0.207     0  05:05           0        4.07       0.868
  J4                   JUNCTION     0.000    0.036     0  05:00           0       0.704       0.155
  J5                   JUNCTION     0.045    0.080     0  05:05       0.824        1.53      -0.061
  J6                   JUNCTION     0.000    0.062     0  04:10           0       0.603       1.349
  J7                   JUNCTION     0.000    0.039     0  02:35           0       0.682       0.214
  J8                   JUNCTION     0.173    0.211     0  03:05        3.18        3.86      -0.045
  J9                   JUNCTION     0.000    0.173     0  07:05           0        3.51       0.424
  Out_to_WWTP          OUTFALL      0.000    0.265     0  05:12           0        8.07       0.000
  T1                   STORAGE      0.000    0.413     0  02:26           0        8.96       5.553
  T2                   STORAGE      0.000    0.163     0  05:02           0        2.79      47.604
  T3                   STORAGE      0.000    0.315     0  03:30           0        6.19      26.929
  T4                   STORAGE      0.000    0.079     0  05:06           0        1.53      27.198
  T5                   STORAGE      0.000    0.101     0  01:56           0        1.67      20.893
  T6                   STORAGE      0.000    0.211     0  03:05           0        3.87       5.566
  
  
  **********************
  Node Surcharge Summary
  **********************
  
  No nodes were surcharged.
  
  
  *********************
  Node Flooding Summary
  *********************
  
  Flooding refers to all water that overflows a node, whether it ponds or not.
  --------------------------------------------------------------------------
                                                             Total   Maximum
                                 Maximum   Time of Max       Flood    Ponded
                        Hours       Rate    Occurrence      Volume     Depth
  Node                 Flooded       CMS   days hr:min    10^6 ltr    Meters
  --------------------------------------------------------------------------
  T2                      1.18     0.066      0  06:56       0.108     0.000
  T4                      2.03     0.056      0  06:00       0.148     0.000
  
  
  **********************
  Storage Volume Summary
  **********************
  
  --------------------------------------------------------------------------------------------------
                         Average     Avg  Evap Exfil       Maximum     Max    Time of Max    Maximum
                          Volume    Pcnt  Pcnt  Pcnt        Volume    Pcnt     Occurrence    Outflow
  Storage Unit           1000 m3    Full  Loss  Loss       1000 m3    Full    days hr:min        CMS
  --------------------------------------------------------------------------------------------------
  T1                       0.473      68     0     0         0.673      96       0  05:11      0.265
  T2                       0.595      59     0     0         1.000     100       0  06:44      0.140
  T3                       1.407      54     0     0         2.484      96       0  10:10      0.148
  T4                       0.309      62     0     0         0.500     100       0  06:00      0.062
  T5                       0.284      57     0     0         0.424      85       0  07:17      0.036
  T6                       0.347      58     0     0         0.589      98       0  07:05      0.173
  
  
  ***********************
  Outfall Loading Summary
  ***********************
  
  -----------------------------------------------------------
                         Flow       Avg       Max       Total
                         Freq      Flow      Flow      Volume
  Outfall Node           Pcnt       CMS       CMS    10^6 ltr
  -----------------------------------------------------------
  Out_to_WWTP           99.21     0.210     0.265       8.066
  -----------------------------------------------------------
  System                99.21     0.210     0.265       8.066
  
  
  ********************
  Link Flow Summary
  ********************
  
  -----------------------------------------------------------------------------
                                 Maximum  Time of Max   Maximum    Max/    Max/
                                  |Flow|   Occurrence   |Veloc|    Full    Full
  Link                 Type          CMS  days hr:min     m/sec    Flow   Depth
  -----------------------------------------------------------------------------
  C1                   CONDUIT     0.036     0  07:19      1.04    0.01    0.11
  C10                  CONDUIT     0.211     0  03:05      1.62    0.02    0.55
  C11                  CONDUIT     0.206     0  05:05      1.80    0.01    0.08
  C12                  CONDUIT     0.172     0  07:14      1.44    0.01    0.23
  C13                  CONDUIT     0.315     0  03:30      1.49    0.02    0.69
  C14                  CONDUIT     0.265     0  05:12      2.07    0.01    0.08
  C15                  CONDUIT     0.135     0  02:25      2.14    0.43    0.41
  C16                  CONDUIT     0.134     0  02:27      1.19    0.01    0.08
  C17                  CONDUIT     0.226     0  02:27      1.97    0.01    0.20
  C18                  CONDUIT     0.163     0  05:02      3.92    0.01    0.53
  C19                  CONDUIT     0.138     0  07:05      1.54    0.05    0.17
  C2                   CONDUIT     0.062     0  04:15      1.71    0.07    0.19
  C20                  CONDUIT     0.201     0  01:56      3.28    0.01    0.08
  C21                  CONDUIT     0.066     0  02:21      1.45    0.38    0.34
  C22                  CONDUIT     0.066     0  02:25      1.05    0.03    0.20
  C23                  CONDUIT     0.413     0  02:26      1.22    0.05    0.57
  C3                   CONDUIT     0.149     0  04:53      2.08    0.06    0.15
  C4                   CONDUIT     0.101     0  01:56      3.48    0.02    0.55
  C5                   CONDUIT     0.036     0  05:00      1.20    0.61    0.62
  C6                   CONDUIT     0.035     0  05:07      1.14    0.56    0.45
  C7                   CONDUIT     0.079     0  05:06      1.41    0.02    0.55
  C8                   CONDUIT     0.039     0  02:35      1.12    0.49    0.45
  C9                   CONDUIT     0.038     0  02:37      0.89    0.13    0.27
  V1                   ORIFICE     0.265     0  05:11                      1.00
  V2                   ORIFICE     0.140     0  07:00                      1.00
  V3                   ORIFICE     0.148     0  05:05                      1.00
  V4                   ORIFICE     0.062     0  04:10                      1.00
  V5                   ORIFICE     0.036     0  07:17                      1.00
  V6                   ORIFICE     0.173     0  07:05                      1.00
  
  
  ***************************
  Flow Classification Summary
  ***************************
  
  -------------------------------------------------------------------------------------
                      Adjusted    ---------- Fraction of Time in Flow Class ---------- 
                       /Actual         Up    Down  Sub   Sup   Up    Down  Norm  Inlet 
  Conduit               Length    Dry  Dry   Dry   Crit  Crit  Crit  Crit  Ltd   Ctrl  
  -------------------------------------------------------------------------------------
  C1                      1.00   0.00  0.00  0.00  0.20  0.79  0.00  0.00  0.96  0.00
  C10                     1.00   0.00  0.00  0.00  0.96  0.04  0.00  0.00  0.98  0.00
  C11                     1.00   0.00  0.00  0.00  0.30  0.70  0.00  0.00  1.00  0.00
  C12                     1.00   0.00  0.00  0.00  0.73  0.27  0.00  0.00  0.97  0.00
  C13                     1.00   0.00  0.00  0.00  0.90  0.10  0.00  0.00  0.61  0.00
  C14                     1.00   0.00  0.00  0.00  0.01  0.99  0.00  0.00  0.64  0.00
  C15                     1.00   0.00  0.00  0.00  0.00  1.00  0.00  0.00  0.00  0.00
  C16                     1.00   0.00  0.00  0.00  0.22  0.78  0.00  0.00  0.14  0.00
  C17                     1.00   0.00  0.00  0.00  0.30  0.70  0.00  0.00  0.98  0.00
  C18                     1.00   0.00  0.00  0.00  0.95  0.05  0.00  0.00  0.98  0.00
  C19                     1.00   0.00  0.00  0.00  0.99  0.01  0.00  0.00  1.00  0.00
  C2                      1.00   0.00  0.00  0.00  0.63  0.37  0.00  0.00  0.99  0.00
  C20                     1.00   0.00  0.00  0.00  0.34  0.66  0.00  0.00  0.99  0.00
  C21                     1.00   0.00  0.00  0.00  0.00  1.00  0.00  0.00  0.00  0.00
  C22                     1.00   0.00  0.00  0.00  0.93  0.07  0.00  0.00  1.00  0.00
  C23                     1.00   0.00  0.00  0.00  0.92  0.08  0.00  0.00  0.96  0.00
  C3                      1.00   0.00  0.00  0.00  0.03  0.96  0.00  0.00  0.62  0.00
  C4                      1.00   0.00  0.00  0.00  0.97  0.03  0.00  0.00  0.99  0.00
  C5                      1.00   0.00  0.00  0.00  0.93  0.07  0.00  0.00  0.99  0.00
  C6                      1.00   0.00  0.00  0.00  0.01  0.99  0.00  0.00  0.00  0.00
  C7                      1.00   0.00  0.00  0.00  0.96  0.04  0.00  0.00  0.98  0.00
  C8                      1.00   0.00  0.00  0.00  0.09  0.91  0.00  0.00  0.00  0.00
  C9                      1.00   0.00  0.00  0.00  1.00  0.00  0.00  0.00  1.00  0.00
  
  
  *************************
  Conduit Surcharge Summary
  *************************
  
  ----------------------------------------------------------------------------
                                                           Hours        Hours 
                         --------- Hours Full --------   Above Full   Capacity
  Conduit                Both Ends  Upstream  Dnstream   Normal Flow   Limited
  ----------------------------------------------------------------------------
  C10                         0.01      0.01      8.29      0.01         0.01
  C13                         0.01      0.01      7.07      0.01         0.01
  C18                         0.01      0.01      7.12      0.01         0.01
  C23                         0.01      0.01      8.78      0.01         0.01
  C4                          0.01      0.01      8.93      0.01         0.01
  C7                          0.01      0.01      8.29      0.01         0.01
  

  Analysis begun on:  Sun Jul 17 21:59:40 2022
  Analysis ended on:  Sun Jul 17 21:59:41 2022
  Total elapsed time: 00:00:01