
  EPA STORM WATER MANAGEMENT MODEL - VERSION 5.1 (Build 5.3.0.dev0)
  --------------------------------------------------------------

  
  *********************************************************
  NOTE: The summary statistics displayed in this report are
  based on results found at every computational time step,  
  not just on results from each reporting time step.
  *********************************************************
  
  ****************
  Analysis Options
  ****************
  Flow Units ............... CMS
  Process Models:
    Rainfall/Runoff ........ YES
    RDII ................... NO
    Snowmelt ............... NO
    Groundwater ............ NO
    Flow Routing ........... YES
    Ponding Allowed ........ NO
    Water Quality .......... NO
  Infiltration Method ...... HORTON
  Flow Routing Method ...... DYNWAVE
  Surcharge Method ......... EXTRAN
  Starting Date ............ 07/25/2007 01:10:00
  Ending Date .............. 07/25/2007 12:45:00
  Antecedent Dry Days ...... 0.0
  Report Time Step ......... 00:05:00
  Wet Time Step ............ 00:05:00
  Dry Time Step ............ 01:00:00
  Routing Time Step ........ 30.00 sec
  Variable Time Step ....... YES
  Maximum Trials ........... 8
  Number of Threads ........ 1
  Head Tolerance ........... 0.001500 m
  
  
  **************************        Volume         Depth
  Runoff Quantity Continuity     hectare-m            mm
  **************************     ---------       -------
  Total Precipitation ......         2.295        12.737
  Evaporation Loss .........         0.000         0.000
  Infiltration Loss ........         0.000         0.000
  Surface Runoff ...........         2.271        12.605
  Final Storage ............         0.027         0.148
  Continuity Error (%) .....        -0.125
  
  
  **************************        Volume        Volume
  Flow Routing Continuity        hectare-m      10^6 ltr
  **************************     ---------     ---------
  Dry Weather Inflow .......         0.387         3.873
  Wet Weather Inflow .......         2.272        22.723
  Groundwater Inflow .......         0.000         0.000
  RDII Inflow ..............         0.000         0.000
  External Inflow ..........         0.000         0.000
  External Outflow .........         0.920         9.204
  Flooding Loss ............         0.630         6.302
  Evaporation Loss .........         0.000         0.000
  Exfiltration Loss ........         0.000         0.000
  Initial Stored Volume ....         0.000         0.000
  Final Stored Volume ......         0.830         8.300
  Continuity Error (%) .....        10.494
  
  
  *************************
  Highest Continuity Errors
  *************************
  Node T2 (24.92%)
  Node T5 (22.19%)
  Node T4 (17.63%)
  Node T3 (14.44%)
  Node T6 (13.91%)
  
  
  ***************************
  Time-Step Critical Elements
  ***************************
  Link C15 (59.79%)
  
  
  ********************************
  Highest Flow Instability Indexes
  ********************************
  Link C13 (8)
  Link C11 (4)
  Link C3 (3)
  Link V3 (3)
  Link C2 (3)
  
  
  *************************
  Routing Time Step Summary
  *************************
  Minimum Time Step           :     0.59 sec
  Average Time Step           :    24.19 sec
  Maximum Time Step           :    30.00 sec
  Percent in Steady State     :    11.89
  Average Iterations per Step :     2.46
  Percent Not Converging      :     2.50
  
  
  ***************************
  Subcatchment Runoff Summary
  ***************************
  
  ------------------------------------------------------------------------------------------------------------------------------
                            Total      Total      Total      Total     Imperv       Perv      Total       Total     Peak  Runoff
                           Precip      Runon       Evap      Infil     Runoff     Runoff     Runoff      Runoff   Runoff   Coeff
  Subcatchment                 mm         mm         mm         mm         mm         mm         mm    10^6 ltr      CMS
  ------------------------------------------------------------------------------------------------------------------------------
  SC01                      11.50       0.00       0.00       0.00      11.42       0.00      11.42        3.77     0.40   0.993
  SC010                     11.50       0.00       0.00       0.00      11.38       0.00      11.38        1.34     0.12   0.990
  SC02                      13.85       0.00       0.00       0.00      13.77       0.00      13.77        3.13     0.45   0.994
  SC03                      14.10       0.00       0.00       0.00      14.05       0.00      14.05        2.53     0.26   0.996
  SC04                      13.85       0.00       0.00       0.00      13.66       0.00      13.66        0.94     0.11   0.986
  SC05                      11.50       0.00       0.00       0.00      11.41       0.00      11.41        1.78     0.18   0.992
  SC06                      12.07       0.00       0.00       0.00      11.79       0.00      11.79        3.84     0.32   0.977
  SC07                      13.85       0.00       0.00       0.00      13.66       0.00      13.66        0.65     0.07   0.986
  SC08                      14.10       0.00       0.00       0.00      13.98       0.00      13.98        3.92     0.36   0.992
  SC09                      12.07       0.00       0.00       0.00      11.91       0.00      11.91        0.82     0.08   0.987
  
  
  ******************
  Node Depth Summary
  ******************
  
  ---------------------------------------------------------------------------------
                                 Average  Maximum  Maximum  Time of Max    Reported
                                   Depth    Depth      HGL   Occurrence   Max Depth
  Node                 Type       Meters   Meters   Meters  days hr:min      Meters
  ---------------------------------------------------------------------------------
  CSO10                JUNCTION     0.15     0.31    30.31     0  05:51        0.30
  CSO7                 JUNCTION     0.17     1.20    35.20     0  02:15        1.20
  CSO8                 JUNCTION     0.21     0.87    32.87     0  05:45        0.86
  CSO9                 JUNCTION     0.14     0.62    40.62     0  05:55        0.60
  J1                   JUNCTION     0.08     0.15    34.15     0  05:51        0.15
  J10                  JUNCTION     0.13     0.24    29.24     0  05:46        0.24
  J11                  JUNCTION     0.14     0.26    31.26     0  05:46        0.25
  J12                  JUNCTION     0.64     1.03    27.03     0  05:41        1.02
  J13                  JUNCTION     0.08     0.18    29.18     0  02:10        0.18
  J14                  JUNCTION     0.13     0.19    20.19     0  05:37        0.19
  J15                  JUNCTION     0.19     0.29    15.29     0  05:52        0.29
  J16                  JUNCTION     0.08     0.16    30.16     0  05:51        0.16
  J17                  JUNCTION     0.06     0.15    20.15     0  05:35        0.15
  J18                  JUNCTION     0.07     0.13    29.13     0  05:53        0.13
  J19                  JUNCTION     0.15     0.17     8.17     0  03:18        0.17
  J2                   JUNCTION     0.07     0.08    25.08     0  07:36        0.08
  J3                   JUNCTION     0.11     0.17    18.17     0  07:01        0.17
  J4                   JUNCTION     0.16     0.90    33.90     0  02:15        0.90
  J5                   JUNCTION     0.07     0.14    32.14     0  02:25        0.14
  J6                   JUNCTION     0.06     0.12    25.12     0  07:03        0.12
  J7                   JUNCTION     0.10     0.18    39.18     0  05:56        0.18
  J8                   JUNCTION     0.12     0.21    36.21     0  05:56        0.21
  J9                   JUNCTION     0.11     0.16    29.16     0  03:51        0.16
  Out_to_WWTP          OUTFALL      0.15     0.17     6.17     0  04:06        0.17
  T1                   STORAGE      3.89     5.00    15.00     0  03:17        5.00
  T2                   STORAGE      3.73     5.00    26.00     0  05:37        5.00
  T3                   STORAGE      3.65     5.00    27.00     0  05:36        5.00
  T4                   STORAGE      3.65     5.00    32.00     0  04:03        5.00
  T5                   STORAGE      3.36     5.00    32.00     0  06:28        5.00
  T6                   STORAGE      3.76     5.00    36.00     0  03:35        5.00
  
  
  *******************
  Node Inflow Summary
  *******************
  
  -------------------------------------------------------------------------------------------------
                                  Maximum  Maximum                  Lateral       Total        Flow
                                  Lateral    Total  Time of Max      Inflow      Inflow     Balance
                                   Inflow   Inflow   Occurrence      Volume      Volume       Error
  Node                 Type           CMS      CMS  days hr:min    10^6 ltr    10^6 ltr     Percent
  -------------------------------------------------------------------------------------------------
  CSO10                JUNCTION     0.128    0.128     0  05:50        1.48        1.48      -0.283
  CSO7                 JUNCTION     0.075    0.075     0  02:25       0.936       0.937      -0.021
  CSO8                 JUNCTION     0.365    0.365     0  05:45        4.17        4.19      -0.183
  CSO9                 JUNCTION     0.088    0.088     0  05:55        1.02        1.02      -0.170
  J1                   JUNCTION     0.198    0.198     0  05:50        2.34        2.34      -0.376
  J10                  JUNCTION     0.274    0.623     0  05:45        2.91        7.16      -0.674
  J11                  JUNCTION     0.000    0.365     0  05:45           0         4.2      -0.701
  J12                  JUNCTION     0.000    0.723     0  03:00           0        10.7       8.325
  J13                  JUNCTION     0.455    0.455     0  02:10         3.6         3.6      -0.443
  J14                  JUNCTION     0.000    0.190     0  05:37           0        4.21       0.689
  J15                  JUNCTION     0.000    0.789     0  05:50           0          13       0.015
  J16                  JUNCTION     0.412    0.412     0  05:50        4.32        4.33      -0.498
  J17                  JUNCTION     0.000    0.140     0  06:50           0       0.935       0.207
  J18                  JUNCTION     0.000    0.128     0  05:51           0        1.48      -0.525
  J19                  JUNCTION     0.000    0.271     0  03:17           0        9.22       0.130
  J2                   JUNCTION     0.000    0.039     0  06:28           0        1.26       0.456
  J3                   JUNCTION     0.000    0.306     0  06:53           0        6.27       0.921
  J4                   JUNCTION     0.000    0.072     0  02:14           0       0.935       0.091
  J5                   JUNCTION     0.107    0.178     0  02:25        1.07        2.01      -0.096
  J6                   JUNCTION     0.000    0.080     0  05:40           0       0.839      -0.335
  J7                   JUNCTION     0.000    0.088     0  05:55           0        1.02      -0.316
  J8                   JUNCTION     0.352    0.434     0  05:55        4.77         5.8      -0.226
  J9                   JUNCTION     0.000    0.175     0  03:36           0        3.47       1.752
  Out_to_WWTP          OUTFALL      0.000    0.271     0  03:18           0         9.2       0.000
  T1                   STORAGE      0.000    0.744     0  05:53           0          13       5.635
  T2                   STORAGE      0.000    0.453     0  02:11           0        3.62      33.187
  T3                   STORAGE      0.000    0.837     0  05:45           0         9.9      16.872
  T4                   STORAGE      0.000    0.177     0  02:25           0        2.01      21.409
  T5                   STORAGE      0.000    0.196     0  05:51           0        2.35      28.517
  T6                   STORAGE      0.000    0.428     0  05:56           0        5.82      16.153
  
  
  **********************
  Node Surcharge Summary
  **********************
  
  Surcharging occurs when water rises above the top of the highest conduit.
  ---------------------------------------------------------------------
                                               Max. Height   Min. Depth
                                   Hours       Above Crown    Below Rim
  Node                 Type      Surcharged         Meters       Meters
  ---------------------------------------------------------------------
  CSO7                 JUNCTION        1.09          0.945        0.000
  CSO8                 JUNCTION        0.60          0.415        1.132
  CSO9                 JUNCTION        0.16          0.299        1.383
  J4                   JUNCTION        1.00          0.601        1.099
  
  
  *********************
  Node Flooding Summary
  *********************
  
  Flooding refers to all water that overflows a node, whether it ponds or not.
  --------------------------------------------------------------------------
                                                             Total   Maximum
                                 Maximum   Time of Max       Flood    Ponded
                        Hours       Rate    Occurrence      Volume     Depth
  Node                 Flooded       CMS   days hr:min    10^6 ltr    Meters
  --------------------------------------------------------------------------
  CSO7                    0.22     0.005      0  02:25       0.002     0.000
  T1                      4.02     0.474      0  05:53       2.463     0.000
  T2                      1.93     0.268      0  05:52       0.797     0.000
  T3                      2.52     0.774      0  05:45       1.637     0.000
  T4                      3.02     0.107      0  06:11       0.327     0.000
  T5                      2.00     0.038      0  06:28       0.136     0.000
  T6                      2.80     0.398      0  05:56       0.933     0.000
  
  
  **********************
  Storage Volume Summary
  **********************
  
  --------------------------------------------------------------------------------------------------
                         Average     Avg  Evap Exfil       Maximum     Max    Time of Max    Maximum
                          Volume    Pcnt  Pcnt  Pcnt        Volume    Pcnt     Occurrence    Outflow
  Storage Unit           1000 m3    Full  Loss  Loss       1000 m3    Full    days hr:min        CMS
  --------------------------------------------------------------------------------------------------
  T1                       0.544      78     0     0         0.700     100       0  03:17      0.271
  T2                       0.745      75     0     0         1.000     100       0  05:37      0.140
  T3                       1.898      73     0     0         2.600     100       0  05:36      0.255
  T4                       0.365      73     0     0         0.500     100       0  04:03      0.080
  T5                       0.336      67     0     0         0.500     100       0  06:28      0.039
  T6                       0.452      75     0     0         0.600     100       0  03:35      0.175
  
  
  ***********************
  Outfall Loading Summary
  ***********************
  
  -----------------------------------------------------------
                         Flow       Avg       Max       Total
                         Freq      Flow      Flow      Volume
  Outfall Node           Pcnt       CMS       CMS    10^6 ltr
  -----------------------------------------------------------
  Out_to_WWTP           98.83     0.224     0.271       9.204
  -----------------------------------------------------------
  System                98.83     0.224     0.271       9.204
  
  
  ********************
  Link Flow Summary
  ********************
  
  -----------------------------------------------------------------------------
                                 Maximum  Time of Max   Maximum    Max/    Max/
                                  |Flow|   Occurrence   |Veloc|    Full    Full
  Link                 Type          CMS  days hr:min     m/sec    Flow   Depth
  -----------------------------------------------------------------------------
  C1                   CONDUIT     0.039     0  07:37      1.00    0.01    0.12
  C10                  CONDUIT     0.428     0  05:56      2.35    0.04    0.57
  C11                  CONDUIT     0.293     0  07:01      1.90    0.01    0.11
  C12                  CONDUIT     0.175     0  03:52      1.08    0.01    0.29
  C13                  CONDUIT     0.837     0  05:45      1.69    0.05    0.76
  C14                  CONDUIT     0.271     0  03:18      2.08    0.02    0.09
  C15                  CONDUIT     0.365     0  05:45      2.70    1.16    0.78
  C16                  CONDUIT     0.356     0  05:46      1.60    0.03    0.12
  C17                  CONDUIT     0.614     0  05:46      2.60    0.03    0.32
  C18                  CONDUIT     0.453     0  02:11      1.24    0.02    0.54
  C19                  CONDUIT     0.137     0  05:35      1.56    0.05    0.18
  C2                   CONDUIT     0.079     0  07:03      1.91    0.09    0.24
  C20                  CONDUIT     0.408     0  05:51      2.12    0.01    0.11
  C21                  CONDUIT     0.128     0  05:51      1.71    0.73    0.49
  C22                  CONDUIT     0.126     0  05:53      1.25    0.06    0.26
  C23                  CONDUIT     0.744     0  05:53      1.27    0.08    0.60
  C3                   CONDUIT     0.193     0  05:38      2.27    0.07    0.18
  C4                   CONDUIT     0.196     0  05:51      1.18    0.05    0.57
  C5                   CONDUIT     0.072     0  02:14      1.40    1.22    1.00
  C6                   CONDUIT     0.071     0  02:25      1.28    1.12    0.74
  C7                   CONDUIT     0.177     0  02:25      0.83    0.04    0.57
  C8                   CONDUIT     0.088     0  05:55      1.74    1.11    0.79
  C9                   CONDUIT     0.084     0  06:01      1.16    0.29    0.40
  V1                   ORIFICE     0.271     0  03:17                      1.00
  V2                   ORIFICE     0.140     0  06:50                      1.00
  V3                   ORIFICE     0.190     0  05:37                      1.00
  V4                   ORIFICE     0.080     0  05:40                      1.00
  V5                   ORIFICE     0.039     0  06:28                      1.00
  V6                   ORIFICE     0.175     0  03:36                      1.00
  
  
  ***************************
  Flow Classification Summary
  ***************************
  
  -------------------------------------------------------------------------------------
                      Adjusted    ---------- Fraction of Time in Flow Class ---------- 
                       /Actual         Up    Down  Sub   Sup   Up    Down  Norm  Inlet 
  Conduit               Length    Dry  Dry   Dry   Crit  Crit  Crit  Crit  Ltd   Ctrl  
  -------------------------------------------------------------------------------------
  C1                      1.00   0.00  0.00  0.00  0.45  0.55  0.00  0.00  0.93  0.00
  C10                     1.00   0.00  0.00  0.00  0.89  0.11  0.00  0.00  0.96  0.00
  C11                     1.00   0.00  0.00  0.00  0.39  0.61  0.00  0.00  1.00  0.00
  C12                     1.00   0.00  0.00  0.00  0.99  0.01  0.00  0.00  0.99  0.00
  C13                     1.00   0.00  0.00  0.00  0.89  0.11  0.00  0.00  0.19  0.00
  C14                     1.00   0.01  0.00  0.00  0.01  0.98  0.00  0.00  0.32  0.00
  C15                     1.00   0.05  0.00  0.00  0.00  0.95  0.00  0.00  0.01  0.00
  C16                     1.00   0.00  0.05  0.00  0.19  0.76  0.00  0.00  0.21  0.00
  C17                     1.00   0.00  0.00  0.00  0.67  0.33  0.00  0.00  0.98  0.00
  C18                     1.00   0.00  0.00  0.00  0.91  0.09  0.00  0.00  0.95  0.00
  C19                     1.00   0.00  0.00  0.00  0.97  0.02  0.00  0.00  1.00  0.00
  C2                      1.00   0.00  0.00  0.00  0.80  0.19  0.00  0.00  0.99  0.00
  C20                     1.00   0.00  0.00  0.00  0.42  0.58  0.00  0.00  0.99  0.00
  C21                     1.00   0.00  0.00  0.00  0.00  1.00  0.00  0.00  0.00  0.00
  C22                     1.00   0.00  0.00  0.00  0.79  0.21  0.00  0.00  1.00  0.00
  C23                     1.00   0.00  0.00  0.00  0.90  0.10  0.00  0.00  0.90  0.00
  C3                      1.00   0.00  0.00  0.00  0.06  0.93  0.00  0.00  0.27  0.00
  C4                      1.00   0.00  0.00  0.00  0.91  0.09  0.00  0.00  0.95  0.00
  C5                      1.00   0.00  0.00  0.00  0.80  0.20  0.00  0.00  0.87  0.00
  C6                      1.00   0.00  0.00  0.00  0.17  0.83  0.00  0.00  0.00  0.00
  C7                      1.00   0.00  0.00  0.00  0.91  0.09  0.00  0.00  0.95  0.00
  C8                      1.00   0.00  0.00  0.00  0.10  0.90  0.00  0.00  0.00  0.00
  C9                      1.00   0.00  0.00  0.00  1.00  0.00  0.00  0.00  1.00  0.00
  
  
  *************************
  Conduit Surcharge Summary
  *************************
  
  ----------------------------------------------------------------------------
                                                           Hours        Hours 
                         --------- Hours Full --------   Above Full   Capacity
  Conduit                Both Ends  Upstream  Dnstream   Normal Flow   Limited
  ----------------------------------------------------------------------------
  C10                         0.01      0.01      9.27      0.01         0.01
  C13                         0.01      0.01      8.97      0.01         0.01
  C15                         0.01      0.60      0.01      0.99         0.01
  C18                         0.01      0.01      9.13      0.01         0.01
  C23                         0.01      0.01      9.48      0.01         0.01
  C4                          0.01      0.01      9.50      0.01         0.01
  C5                          1.06      1.09      1.18      0.88         0.78
  C6                          0.01      1.00      0.01      0.31         0.01
  C7                          0.01      0.01      9.28      0.01         0.01
  C8                          0.01      0.16      0.01      0.18         0.01
  

  Analysis begun on:  Sun Jul 17 20:02:25 2022
  Analysis ended on:  Sun Jul 17 20:02:26 2022
  Total elapsed time: 00:00:01