
  EPA STORM WATER MANAGEMENT MODEL - VERSION 5.1 (Build 5.3.0.dev0)
  --------------------------------------------------------------

  
  *********************************************************
  NOTE: The summary statistics displayed in this report are
  based on results found at every computational time step,  
  not just on results from each reporting time step.
  *********************************************************
  
  ****************
  Analysis Options
  ****************
  Flow Units ............... CMS
  Process Models:
    Rainfall/Runoff ........ YES
    RDII ................... NO
    Snowmelt ............... NO
    Groundwater ............ NO
    Flow Routing ........... YES
    Ponding Allowed ........ NO
    Water Quality .......... NO
  Infiltration Method ...... HORTON
  Flow Routing Method ...... DYNWAVE
  Surcharge Method ......... EXTRAN
  Starting Date ............ 03/01/2008 03:00:00
  Ending Date .............. 03/01/2008 12:55:00
  Antecedent Dry Days ...... 0.0
  Report Time Step ......... 00:05:00
  Wet Time Step ............ 00:05:00
  Dry Time Step ............ 01:00:00
  Routing Time Step ........ 30.00 sec
  Variable Time Step ....... YES
  Maximum Trials ........... 8
  Number of Threads ........ 1
  Head Tolerance ........... 0.001500 m
  
  
  **************************        Volume         Depth
  Runoff Quantity Continuity     hectare-m            mm
  **************************     ---------       -------
  Total Precipitation ......         1.762         9.778
  Evaporation Loss .........         0.000         0.000
  Infiltration Loss ........         0.000         0.000
  Surface Runoff ...........         1.734         9.622
  Final Storage ............         0.030         0.168
  Continuity Error (%) .....        -0.125
  
  
  **************************        Volume        Volume
  Flow Routing Continuity        hectare-m      10^6 ltr
  **************************     ---------     ---------
  Dry Weather Inflow .......         0.387         3.870
  Wet Weather Inflow .......         1.733        17.335
  Groundwater Inflow .......         0.000         0.000
  RDII Inflow ..............         0.000         0.000
  External Inflow ..........         0.000         0.000
  External Outflow .........         0.798         7.982
  Flooding Loss ............         0.201         2.013
  Evaporation Loss .........         0.000         0.000
  Exfiltration Loss ........         0.000         0.000
  Initial Stored Volume ....         0.000         0.000
  Final Stored Volume ......         0.836         8.356
  Continuity Error (%) .....        13.458
  
  
  *************************
  Highest Continuity Errors
  *************************
  Node T2 (37.89%)
  Node T4 (23.93%)
  Node T6 (21.41%)
  Node T5 (20.83%)
  Node T3 (18.23%)
  
  
  ***************************
  Time-Step Critical Elements
  ***************************
  Link C15 (61.05%)
  
  
  ********************************
  Highest Flow Instability Indexes
  ********************************
  Link C13 (7)
  Link C23 (4)
  Link C12 (3)
  Link C20 (3)
  Link C15 (2)
  
  
  *************************
  Routing Time Step Summary
  *************************
  Minimum Time Step           :     0.02 sec
  Average Time Step           :    24.93 sec
  Maximum Time Step           :    30.00 sec
  Percent in Steady State     :     8.65
  Average Iterations per Step :     2.03
  Percent Not Converging      :     0.00
  
  
  ***************************
  Subcatchment Runoff Summary
  ***************************
  
  ------------------------------------------------------------------------------------------------------------------------------
                            Total      Total      Total      Total     Imperv       Perv      Total       Total     Peak  Runoff
                           Precip      Runon       Evap      Infil     Runoff     Runoff     Runoff      Runoff   Runoff   Coeff
  Subcatchment                 mm         mm         mm         mm         mm         mm         mm    10^6 ltr      CMS
  ------------------------------------------------------------------------------------------------------------------------------
  SC01                      10.19       0.00       0.00       0.00      10.10       0.00      10.10        3.33     0.32   0.991
  SC010                     10.19       0.00       0.00       0.00      10.06       0.00      10.06        1.18     0.11   0.987
  SC02                      10.42       0.00       0.00       0.00      10.31       0.00      10.31        2.35     0.33   0.989
  SC03                       9.62       0.00       0.00       0.00       9.55       0.00       9.55        1.72     0.26   0.993
  SC04                      10.42       0.00       0.00       0.00      10.16       0.00      10.16        0.70     0.08   0.975
  SC05                      10.19       0.00       0.00       0.00      10.09       0.00      10.09        1.57     0.15   0.990
  SC06                       8.77       0.00       0.00       0.00       8.47       0.00       8.47        2.76     0.20   0.966
  SC07                      10.42       0.00       0.00       0.00      10.16       0.00      10.16        0.48     0.05   0.975
  SC08                       9.62       0.00       0.00       0.00       9.47       0.00       9.47        2.65     0.32   0.985
  SC09                       8.77       0.00       0.00       0.00       8.59       0.00       8.59        0.59     0.05   0.980
  
  
  ******************
  Node Depth Summary
  ******************
  
  ---------------------------------------------------------------------------------
                                 Average  Maximum  Maximum  Time of Max    Reported
                                   Depth    Depth      HGL   Occurrence   Max Depth
  Node                 Type       Meters   Meters   Meters  days hr:min      Meters
  ---------------------------------------------------------------------------------
  CSO10                JUNCTION     0.15     0.28    30.28     0  02:05        0.27
  CSO7                 JUNCTION     0.11     0.21    34.21     0  02:05        0.20
  CSO8                 JUNCTION     0.16     0.40    32.40     0  01:40        0.39
  CSO9                 JUNCTION     0.12     0.19    40.19     0  02:15        0.19
  J1                   JUNCTION     0.08     0.13    34.13     0  01:36        0.13
  J10                  JUNCTION     0.11     0.23    29.23     0  01:42        0.22
  J11                  JUNCTION     0.12     0.24    31.24     0  01:42        0.23
  J12                  JUNCTION     0.49     1.01    27.01     0  06:53        1.01
  J13                  JUNCTION     0.08     0.16    29.16     0  02:05        0.15
  J14                  JUNCTION     0.12     0.19    20.19     0  06:12        0.19
  J15                  JUNCTION     0.19     0.26    15.26     0  03:20        0.25
  J16                  JUNCTION     0.08     0.14    30.14     0  01:36        0.14
  J17                  JUNCTION     0.05     0.15    20.15     0  06:33        0.15
  J18                  JUNCTION     0.07     0.12    29.12     0  02:06        0.12
  J19                  JUNCTION     0.15     0.17     8.17     0  02:43        0.17
  J2                   JUNCTION     0.07     0.08    25.08     0  06:15        0.08
  J3                   JUNCTION     0.11     0.17    18.17     0  06:20        0.17
  J4                   JUNCTION     0.13     0.23    33.23     0  02:10        0.23
  J5                   JUNCTION     0.07     0.12    32.12     0  02:08        0.12
  J6                   JUNCTION     0.06     0.12    25.12     0  06:20        0.12
  J7                   JUNCTION     0.09     0.14    39.14     0  02:17        0.14
  J8                   JUNCTION     0.12     0.17    36.17     0  02:16        0.17
  J9                   JUNCTION     0.11     0.16    29.16     0  04:23        0.16
  Out_to_WWTP          OUTFALL      0.15     0.17     6.17     0  05:29        0.17
  T1                   STORAGE      3.97     5.00    15.00     0  02:42        5.00
  T2                   STORAGE      3.15     5.00    26.00     0  08:44        5.00
  T3                   STORAGE      3.29     5.00    27.00     0  06:44        5.00
  T4                   STORAGE      3.15     4.84    31.84     0  08:04        4.84
  T5                   STORAGE      3.59     5.00    32.00     0  05:13        5.00
  T6                   STORAGE      3.26     4.87    35.87     0  09:05        4.87
  
  
  *******************
  Node Inflow Summary
  *******************
  
  -------------------------------------------------------------------------------------------------
                                  Maximum  Maximum                  Lateral       Total        Flow
                                  Lateral    Total  Time of Max      Inflow      Inflow     Balance
                                   Inflow   Inflow   Occurrence      Volume      Volume       Error
  Node                 Type           CMS      CMS  days hr:min    10^6 ltr    10^6 ltr     Percent
  -------------------------------------------------------------------------------------------------
  CSO10                JUNCTION     0.110    0.110     0  02:05        1.32        1.32      -0.292
  CSO7                 JUNCTION     0.059    0.059     0  02:05       0.769       0.769      -0.010
  CSO8                 JUNCTION     0.325    0.325     0  01:40        2.91        2.91      -0.032
  CSO9                 JUNCTION     0.052    0.052     0  02:15       0.786       0.788      -0.262
  J1                   JUNCTION     0.157    0.157     0  02:05        2.13        2.13      -0.363
  J10                  JUNCTION     0.268    0.557     0  01:40         2.1        5.02      -0.190
  J11                  JUNCTION     0.000    0.322     0  01:40           0        2.91      -0.309
  J12                  JUNCTION     0.000    0.605     0  01:42           0        8.09       9.898
  J13                  JUNCTION     0.339    0.339     0  02:05        2.81        2.81      -0.543
  J14                  JUNCTION     0.000    0.187     0  06:22           0        3.17       0.241
  J15                  JUNCTION     0.000    0.585     0  03:20           0        10.9       0.260
  J16                  JUNCTION     0.328    0.328     0  01:35        3.88        3.88      -0.466
  J17                  JUNCTION     0.000    0.136     0  06:25           0       0.715       0.495
  J18                  JUNCTION     0.000    0.109     0  02:05           0        1.33      -0.711
  J19                  JUNCTION     0.000    0.271     0  02:42           0        7.99       0.152
  J2                   JUNCTION     0.000    0.039     0  05:14           0        1.12       0.483
  J3                   JUNCTION     0.000    0.302     0  06:20           0        5.01       0.745
  J4                   JUNCTION     0.000    0.058     0  02:05           0        0.77       0.390
  J5                   JUNCTION     0.079    0.129     0  02:07       0.827        1.59      -0.136
  J6                   JUNCTION     0.000    0.076     0  06:15           0       0.736       0.374
  J7                   JUNCTION     0.000    0.052     0  02:15           0        0.79      -0.576
  J8                   JUNCTION     0.221    0.269     0  02:15        3.68        4.49      -0.501
  J9                   JUNCTION     0.000    0.170     0  04:15           0        2.96      -3.385
  Out_to_WWTP          OUTFALL      0.000    0.271     0  02:44           0        7.98       0.000
  T1                   STORAGE      0.000    0.571     0  03:20           0        10.9       7.247
  T2                   STORAGE      0.000    0.332     0  02:05           0        2.82      60.995
  T3                   STORAGE      0.000    0.589     0  01:44           0        7.36      22.290
  T4                   STORAGE      0.000    0.128     0  02:08           0         1.6      31.453
  T5                   STORAGE      0.000    0.155     0  01:36           0        2.14      26.313
  T6                   STORAGE      0.000    0.267     0  02:16           0        4.51      27.236
  
  
  **********************
  Node Surcharge Summary
  **********************
  
  No nodes were surcharged.
  
  
  *********************
  Node Flooding Summary
  *********************
  
  Flooding refers to all water that overflows a node, whether it ponds or not.
  --------------------------------------------------------------------------
                                                             Total   Maximum
                                 Maximum   Time of Max       Flood    Ponded
                        Hours       Rate    Occurrence      Volume     Depth
  Node                 Flooded       CMS   days hr:min    10^6 ltr    Meters
  --------------------------------------------------------------------------
  T1                      4.63     0.300      0  03:21       1.541     0.000
  T2                      1.18     0.010      0  09:06       0.039     0.000
  T3                      1.08     0.203      0  06:56       0.313     0.000
  T5                      2.26     0.039      0  06:31       0.120     0.000
  
  
  **********************
  Storage Volume Summary
  **********************
  
  --------------------------------------------------------------------------------------------------
                         Average     Avg  Evap Exfil       Maximum     Max    Time of Max    Maximum
                          Volume    Pcnt  Pcnt  Pcnt        Volume    Pcnt     Occurrence    Outflow
  Storage Unit           1000 m3    Full  Loss  Loss       1000 m3    Full    days hr:min        CMS
  --------------------------------------------------------------------------------------------------
  T1                       0.555      79     0     0         0.700     100       0  02:42      0.271
  T2                       0.630      63     0     0         1.000     100       0  08:44      0.136
  T3                       1.711      66     0     0         2.600     100       0  06:44      0.187
  T4                       0.315      63     0     0         0.484      97       0  08:04      0.076
  T5                       0.359      72     0     0         0.500     100       0  05:13      0.039
  T6                       0.391      65     0     0         0.585      97       0  09:05      0.170
  
  
  ***********************
  Outfall Loading Summary
  ***********************
  
  -----------------------------------------------------------
                         Flow       Avg       Max       Total
                         Freq      Flow      Flow      Volume
  Outfall Node           Pcnt       CMS       CMS    10^6 ltr
  -----------------------------------------------------------
  Out_to_WWTP           98.80     0.227     0.271       7.982
  -----------------------------------------------------------
  System                98.80     0.227     0.271       7.982
  
  
  ********************
  Link Flow Summary
  ********************
  
  -----------------------------------------------------------------------------
                                 Maximum  Time of Max   Maximum    Max/    Max/
                                  |Flow|   Occurrence   |Veloc|    Full    Full
  Link                 Type          CMS  days hr:min     m/sec    Flow   Depth
  -----------------------------------------------------------------------------
  C1                   CONDUIT     0.039     0  05:50      1.06    0.01    0.12
  C10                  CONDUIT     0.267     0  02:16      2.18    0.03    0.56
  C11                  CONDUIT     0.293     0  06:20      1.88    0.01    0.10
  C12                  CONDUIT     0.170     0  04:23      1.36    0.01    0.29
  C13                  CONDUIT     0.589     0  01:44      2.29    0.03    0.75
  C14                  CONDUIT     0.271     0  02:44      2.08    0.02    0.09
  C15                  CONDUIT     0.322     0  01:40      2.67    1.02    0.70
  C16                  CONDUIT     0.308     0  01:42      1.52    0.03    0.12
  C17                  CONDUIT     0.545     0  01:42      2.58    0.03    0.28
  C18                  CONDUIT     0.332     0  02:05      1.55    0.01    0.53
  C19                  CONDUIT     0.135     0  06:33      1.28    0.05    0.19
  C2                   CONDUIT     0.075     0  06:20      1.61    0.09    0.24
  C20                  CONDUIT     0.327     0  01:36      2.77    0.01    0.10
  C21                  CONDUIT     0.109     0  02:05      1.65    0.63    0.45
  C22                  CONDUIT     0.108     0  02:06      1.31    0.05    0.23
  C23                  CONDUIT     0.571     0  03:20      1.58    0.06    0.59
  C3                   CONDUIT     0.188     0  06:12      2.16    0.07    0.18
  C4                   CONDUIT     0.155     0  01:36      6.63    0.04    0.57
  C5                   CONDUIT     0.058     0  02:05      1.50    1.00    0.85
  C6                   CONDUIT     0.054     0  02:10      1.25    0.87    0.59
  C7                   CONDUIT     0.128     0  02:08      0.99    0.03    0.56
  C8                   CONDUIT     0.052     0  02:15      1.39    0.65    0.53
  C9                   CONDUIT     0.051     0  02:17      0.97    0.17    0.31
  V1                   ORIFICE     0.271     0  02:42                      1.00
  V2                   ORIFICE     0.136     0  06:25                      1.00
  V3                   ORIFICE     0.187     0  06:22                      1.00
  V4                   ORIFICE     0.076     0  06:15                      1.00
  V5                   ORIFICE     0.039     0  05:14                      1.00
  V6                   ORIFICE     0.170     0  04:15                      1.00
  
  
  ***************************
  Flow Classification Summary
  ***************************
  
  -------------------------------------------------------------------------------------
                      Adjusted    ---------- Fraction of Time in Flow Class ---------- 
                       /Actual         Up    Down  Sub   Sup   Up    Down  Norm  Inlet 
  Conduit               Length    Dry  Dry   Dry   Crit  Crit  Crit  Crit  Ltd   Ctrl  
  -------------------------------------------------------------------------------------
  C1                      1.00   0.00  0.00  0.00  0.21  0.78  0.00  0.00  0.93  0.00
  C10                     1.00   0.00  0.00  0.00  0.94  0.06  0.00  0.00  0.96  0.00
  C11                     1.00   0.00  0.00  0.00  0.36  0.63  0.00  0.00  1.00  0.00
  C12                     1.00   0.00  0.00  0.00  0.92  0.08  0.00  0.00  0.98  0.00
  C13                     1.00   0.00  0.00  0.00  0.85  0.15  0.00  0.00  0.28  0.00
  C14                     1.00   0.01  0.00  0.00  0.01  0.98  0.00  0.00  0.20  0.00
  C15                     1.00   0.09  0.00  0.00  0.00  0.91  0.00  0.00  0.00  0.00
  C16                     1.00   0.00  0.09  0.00  0.16  0.75  0.00  0.00  0.17  0.00
  C17                     1.00   0.00  0.00  0.00  0.56  0.44  0.00  0.00  0.97  0.00
  C18                     1.00   0.00  0.00  0.00  0.86  0.14  0.00  0.00  0.96  0.00
  C19                     1.00   0.00  0.00  0.00  0.98  0.02  0.00  0.00  1.00  0.00
  C2                      1.00   0.00  0.00  0.00  0.69  0.31  0.00  0.00  0.98  0.00
  C20                     1.00   0.00  0.00  0.00  0.28  0.72  0.00  0.00  0.98  0.00
  C21                     1.00   0.00  0.00  0.00  0.00  1.00  0.00  0.00  0.00  0.00
  C22                     1.00   0.00  0.00  0.00  0.85  0.15  0.00  0.00  1.00  0.00
  C23                     1.00   0.00  0.00  0.00  0.89  0.11  0.00  0.00  0.93  0.00
  C3                      1.00   0.00  0.01  0.00  0.10  0.89  0.00  0.00  0.33  0.00
  C4                      1.00   0.00  0.00  0.00  0.90  0.10  0.00  0.00  0.96  0.00
  C5                      1.00   0.00  0.00  0.00  0.90  0.10  0.00  0.00  0.97  0.00
  C6                      1.00   0.00  0.00  0.00  0.01  0.99  0.00  0.00  0.00  0.00
  C7                      1.00   0.00  0.00  0.00  0.85  0.15  0.00  0.00  0.92  0.00
  C8                      1.00   0.00  0.00  0.00  0.04  0.96  0.00  0.00  0.00  0.00
  C9                      1.00   0.00  0.00  0.00  1.00  0.00  0.00  0.00  1.00  0.00
  
  
  *************************
  Conduit Surcharge Summary
  *************************
  
  ----------------------------------------------------------------------------
                                                           Hours        Hours 
                         --------- Hours Full --------   Above Full   Capacity
  Conduit                Both Ends  Upstream  Dnstream   Normal Flow   Limited
  ----------------------------------------------------------------------------
  C10                         0.01      0.01      7.69      0.01         0.01
  C13                         0.01      0.01      7.39      0.01         0.01
  C15                         0.01      0.01      0.01      0.03         0.01
  C18                         0.01      0.01      7.34      0.01         0.01
  C23                         0.01      0.01      8.24      0.01         0.01
  C4                          0.01      0.01      8.32      0.01         0.01
  C7                          0.01      0.01      7.76      0.01         0.01
  

  Analysis begun on:  Sun Jul 17 20:39:47 2022
  Analysis ended on:  Sun Jul 17 20:39:48 2022
  Total elapsed time: 00:00:01