
  EPA STORM WATER MANAGEMENT MODEL - VERSION 5.1 (Build 5.3.0.dev0)
  --------------------------------------------------------------

  
  *********************************************************
  NOTE: The summary statistics displayed in this report are
  based on results found at every computational time step,  
  not just on results from each reporting time step.
  *********************************************************
  
  ****************
  Analysis Options
  ****************
  Flow Units ............... CMS
  Process Models:
    Rainfall/Runoff ........ YES
    RDII ................... NO
    Snowmelt ............... NO
    Groundwater ............ NO
    Flow Routing ........... YES
    Ponding Allowed ........ NO
    Water Quality .......... NO
  Infiltration Method ...... HORTON
  Flow Routing Method ...... DYNWAVE
  Surcharge Method ......... EXTRAN
  Starting Date ............ 06/28/2009 21:10:00
  Ending Date .............. 06/29/2009 06:10:00
  Antecedent Dry Days ...... 0.0
  Report Time Step ......... 00:05:00
  Wet Time Step ............ 00:05:00
  Dry Time Step ............ 01:00:00
  Routing Time Step ........ 30.00 sec
  Variable Time Step ....... YES
  Maximum Trials ........... 8
  Number of Threads ........ 1
  Head Tolerance ........... 0.001500 m
  
  
  **************************        Volume         Depth
  Runoff Quantity Continuity     hectare-m            mm
  **************************     ---------       -------
  Total Precipitation ......         1.532         8.504
  Evaporation Loss .........         0.000         0.000
  Infiltration Loss ........         0.000         0.000
  Surface Runoff ...........         1.498         8.311
  Final Storage ............         0.036         0.200
  Continuity Error (%) .....        -0.080
  
  
  **************************        Volume        Volume
  Flow Routing Continuity        hectare-m      10^6 ltr
  **************************     ---------     ---------
  Dry Weather Inflow .......         0.110         1.098
  Wet Weather Inflow .......         1.497        14.973
  Groundwater Inflow .......         0.000         0.000
  RDII Inflow ..............         0.000         0.000
  External Inflow ..........         0.000         0.000
  External Outflow .........         0.617         6.170
  Flooding Loss ............         0.038         0.376
  Evaporation Loss .........         0.000         0.000
  Exfiltration Loss ........         0.000         0.000
  Initial Stored Volume ....         0.000         0.000
  Final Stored Volume ......         0.738         7.383
  Continuity Error (%) .....        13.331
  
  
  *************************
  Highest Continuity Errors
  *************************
  Node T2 (35.26%)
  Node T4 (24.22%)
  Node T5 (22.70%)
  Node T3 (21.76%)
  Node T6 (14.06%)
  
  
  ***************************
  Time-Step Critical Elements
  ***************************
  Link C15 (58.17%)
  Link C8 (2.63%)
  
  
  ********************************
  Highest Flow Instability Indexes
  ********************************
  Link C13 (7)
  Link V3 (5)
  Link C3 (5)
  Link V6 (5)
  Link C23 (5)
  
  
  *************************
  Routing Time Step Summary
  *************************
  Minimum Time Step           :     0.24 sec
  Average Time Step           :    25.79 sec
  Maximum Time Step           :    30.00 sec
  Percent in Steady State     :     0.83
  Average Iterations per Step :     2.05
  Percent Not Converging      :     0.16
  
  
  ***************************
  Subcatchment Runoff Summary
  ***************************
  
  ------------------------------------------------------------------------------------------------------------------------------
                            Total      Total      Total      Total     Imperv       Perv      Total       Total     Peak  Runoff
                           Precip      Runon       Evap      Infil     Runoff     Runoff     Runoff      Runoff   Runoff   Coeff
  Subcatchment                 mm         mm         mm         mm         mm         mm         mm    10^6 ltr      CMS
  ------------------------------------------------------------------------------------------------------------------------------
  SC01                       7.98       0.00       0.00       0.00       7.86       0.00       7.86        2.59     0.22   0.984
  SC010                      7.98       0.00       0.00       0.00       7.81       0.00       7.81        0.92     0.08   0.978
  SC02                       9.20       0.00       0.00       0.00       9.06       0.00       9.06        2.06     0.20   0.985
  SC03                       8.46       0.00       0.00       0.00       8.37       0.00       8.37        1.51     0.18   0.989
  SC04                       9.20       0.00       0.00       0.00       8.87       0.00       8.87        0.61     0.05   0.965
  SC05                       7.98       0.00       0.00       0.00       7.84       0.00       7.84        1.22     0.10   0.983
  SC06                       8.75       0.00       0.00       0.00       8.40       0.00       8.40        2.74     0.33   0.960
  SC07                       9.20       0.00       0.00       0.00       8.88       0.00       8.88        0.42     0.04   0.965
  SC08                       8.46       0.00       0.00       0.00       8.27       0.00       8.27        2.32     0.24   0.978
  SC09                       8.75       0.00       0.00       0.00       8.55       0.00       8.55        0.59     0.08   0.977
  
  
  ******************
  Node Depth Summary
  ******************
  
  ---------------------------------------------------------------------------------
                                 Average  Maximum  Maximum  Time of Max    Reported
                                   Depth    Depth      HGL   Occurrence   Max Depth
  Node                 Type       Meters   Meters   Meters  days hr:min      Meters
  ---------------------------------------------------------------------------------
  CSO10                JUNCTION     0.13     0.22    30.22     0  03:46        0.22
  CSO7                 JUNCTION     0.09     0.15    34.15     0  03:50        0.15
  CSO8                 JUNCTION     0.15     0.31    32.31     0  03:25        0.31
  CSO9                 JUNCTION     0.11     0.43    40.43     0  05:07        0.37
  J1                   JUNCTION     0.07     0.11    34.11     0  03:46        0.11
  J10                  JUNCTION     0.11     0.20    29.20     0  03:28        0.20
  J11                  JUNCTION     0.11     0.21    31.21     0  03:28        0.21
  J12                  JUNCTION     0.28     0.77    26.77     0  08:22        0.76
  J13                  JUNCTION     0.07     0.12    29.12     0  03:45        0.12
  J14                  JUNCTION     0.10     0.19    20.19     0  08:47        0.19
  J15                  JUNCTION     0.16     0.24    15.24     0  04:11        0.24
  J16                  JUNCTION     0.07     0.12    30.12     0  03:46        0.12
  J17                  JUNCTION     0.05     0.12    20.12     0  04:10        0.12
  J18                  JUNCTION     0.06     0.10    29.10     0  03:48        0.10
  J19                  JUNCTION     0.14     0.17     8.17     0  04:39        0.17
  J2                   JUNCTION     0.06     0.07    25.07     0  07:00        0.07
  J3                   JUNCTION     0.10     0.16    18.16     0  08:05        0.16
  J4                   JUNCTION     0.11     0.18    33.18     0  03:52        0.18
  J5                   JUNCTION     0.07     0.10    32.10     0  03:51        0.10
  J6                   JUNCTION     0.05     0.11    25.11     0  08:05        0.11
  J7                   JUNCTION     0.08     0.18    39.18     0  05:12        0.18
  J8                   JUNCTION     0.11     0.21    36.21     0  05:10        0.21
  J9                   JUNCTION     0.10     0.16    29.16     0  05:39        0.16
  Out_to_WWTP          OUTFALL      0.14     0.17     6.17     0  05:30        0.17
  T1                   STORAGE      3.09     5.00    15.00     0  04:38        5.00
  T2                   STORAGE      2.26     4.19    25.19     0  07:35        4.19
  T3                   STORAGE      2.54     4.78    26.78     0  08:26        4.77
  T4                   STORAGE      2.12     4.04    31.04     0  07:45        4.04
  T5                   STORAGE      2.14     3.68    30.68     0  06:58        3.68
  T6                   STORAGE      2.58     5.00    36.00     0  05:10        5.00
  
  
  *******************
  Node Inflow Summary
  *******************
  
  -------------------------------------------------------------------------------------------------
                                  Maximum  Maximum                  Lateral       Total        Flow
                                  Lateral    Total  Time of Max      Inflow      Inflow     Balance
                                   Inflow   Inflow   Occurrence      Volume      Volume       Error
  Node                 Type           CMS      CMS  days hr:min    10^6 ltr    10^6 ltr     Percent
  -------------------------------------------------------------------------------------------------
  CSO10                JUNCTION     0.076    0.076     0  03:45       0.959       0.959       0.046
  CSO7                 JUNCTION     0.038    0.038     0  03:50       0.508       0.508       0.092
  CSO8                 JUNCTION     0.245    0.245     0  03:25        2.32        2.32       0.019
  CSO9                 JUNCTION     0.083    0.083     0  05:05       0.648       0.649       0.072
  J1                   JUNCTION     0.107    0.107     0  03:45        1.39        1.39       0.039
  J10                  JUNCTION     0.184    0.416     0  03:26        1.62        3.94       0.036
  J11                  JUNCTION     0.000    0.245     0  03:25           0        2.32       0.258
  J12                  JUNCTION     0.000    0.479     0  03:34           0        6.49       8.982
  J13                  JUNCTION     0.198    0.198     0  03:45         2.2         2.2      -0.133
  J14                  JUNCTION     0.000    0.185     0  08:26           0        2.16       0.342
  J15                  JUNCTION     0.000    0.540     0  04:10           0         7.7       1.249
  J16                  JUNCTION     0.226    0.226     0  03:45        2.76        2.76       0.025
  J17                  JUNCTION     0.000    0.098     0  04:10           0       0.622       0.869
  J18                  JUNCTION     0.000    0.076     0  03:46           0       0.958       0.114
  J19                  JUNCTION     0.000    0.271     0  04:38           0        6.18       0.193
  J2                   JUNCTION     0.000    0.034     0  06:58           0       0.762       0.624
  J3                   JUNCTION     0.000    0.288     0  08:05           0        3.41       1.231
  J4                   JUNCTION     0.000    0.038     0  03:50           0       0.508       0.703
  J5                   JUNCTION     0.055    0.093     0  03:50        0.65        1.15       0.154
  J6                   JUNCTION     0.000    0.071     0  08:00           0       0.502       1.489
  J7                   JUNCTION     0.000    0.081     0  05:07           0       0.648       0.468
  J8                   JUNCTION     0.335    0.414     0  05:10        3.02        3.66       0.171
  J9                   JUNCTION     0.000    0.175     0  05:10           0        2.52       0.788
  Out_to_WWTP          OUTFALL      0.000    0.271     0  04:40           0        6.17       0.000
  T1                   STORAGE      0.000    0.504     0  04:11           0         7.6      10.316
  T2                   STORAGE      0.000    0.198     0  03:46           0         2.2      54.464
  T3                   STORAGE      0.000    0.470     0  03:35           0        5.95      27.819
  T4                   STORAGE      0.000    0.092     0  03:51           0        1.15      31.954
  T5                   STORAGE      0.000    0.106     0  03:46           0        1.39      29.366
  T6                   STORAGE      0.000    0.412     0  05:10           0        3.65      16.362
  
  
  **********************
  Node Surcharge Summary
  **********************
  
  Surcharging occurs when water rises above the top of the highest conduit.
  ---------------------------------------------------------------------
                                               Max. Height   Min. Depth
                                   Hours       Above Crown    Below Rim
  Node                 Type      Surcharged         Meters       Meters
  ---------------------------------------------------------------------
  CSO9                 JUNCTION        0.08          0.116        1.566
  
  
  *********************
  Node Flooding Summary
  *********************
  
  Flooding refers to all water that overflows a node, whether it ponds or not.
  --------------------------------------------------------------------------
                                                             Total   Maximum
                                 Maximum   Time of Max       Flood    Ponded
                        Hours       Rate    Occurrence      Volume     Depth
  Node                 Flooded       CMS   days hr:min    10^6 ltr    Meters
  --------------------------------------------------------------------------
  T1                      0.77     0.104      0  05:07       0.116     0.000
  T6                      0.67     0.286      0  05:10       0.260     0.000
  
  
  **********************
  Storage Volume Summary
  **********************
  
  --------------------------------------------------------------------------------------------------
                         Average     Avg  Evap Exfil       Maximum     Max    Time of Max    Maximum
                          Volume    Pcnt  Pcnt  Pcnt        Volume    Pcnt     Occurrence    Outflow
  Storage Unit           1000 m3    Full  Loss  Loss       1000 m3    Full    days hr:min        CMS
  --------------------------------------------------------------------------------------------------
  T1                       0.432      62     0     0         0.700     100       0  04:38      0.271
  T2                       0.453      45     0     0         0.838      84       0  07:35      0.098
  T3                       1.320      51     0     0         2.484      96       0  08:26      0.260
  T4                       0.212      42     0     0         0.404      81       0  07:45      0.071
  T5                       0.214      43     0     0         0.368      74       0  06:58      0.034
  T6                       0.310      52     0     0         0.600     100       0  05:10      0.175
  
  
  ***********************
  Outfall Loading Summary
  ***********************
  
  -----------------------------------------------------------
                         Flow       Avg       Max       Total
                         Freq      Flow      Flow      Volume
  Outfall Node           Pcnt       CMS       CMS    10^6 ltr
  -----------------------------------------------------------
  Out_to_WWTP           98.96     0.194     0.271       6.170
  -----------------------------------------------------------
  System                98.96     0.194     0.271       6.170
  
  
  ********************
  Link Flow Summary
  ********************
  
  -----------------------------------------------------------------------------
                                 Maximum  Time of Max   Maximum    Max/    Max/
                                  |Flow|   Occurrence   |Veloc|    Full    Full
  Link                 Type          CMS  days hr:min     m/sec    Flow   Depth
  -----------------------------------------------------------------------------
  C1                   CONDUIT     0.034     0  07:00      1.00    0.01    0.12
  C10                  CONDUIT     0.412     0  05:10      1.68    0.04    0.57
  C11                  CONDUIT     0.272     0  08:06      2.15    0.01    0.09
  C12                  CONDUIT     0.175     0  05:40      1.44    0.01    0.23
  C13                  CONDUIT     0.470     0  03:35      1.29    0.03    0.69
  C14                  CONDUIT     0.271     0  04:40      2.08    0.02    0.09
  C15                  CONDUIT     0.245     0  03:25      2.54    0.78    0.58
  C16                  CONDUIT     0.241     0  03:29      1.42    0.02    0.10
  C17                  CONDUIT     0.413     0  03:28      2.37    0.02    0.21
  C18                  CONDUIT     0.198     0  03:46      3.03    0.01    0.53
  C19                  CONDUIT     0.095     0  04:10      0.98    0.03    0.18
  C2                   CONDUIT     0.070     0  08:05      1.70    0.08    0.23
  C20                  CONDUIT     0.225     0  03:46      2.88    0.01    0.09
  C21                  CONDUIT     0.076     0  03:46      1.79    0.43    0.37
  C22                  CONDUIT     0.075     0  03:48      1.02    0.03    0.21
  C23                  CONDUIT     0.504     0  04:11      1.08    0.06    0.58
  C3                   CONDUIT     0.187     0  08:28      2.23    0.07    0.17
  C4                   CONDUIT     0.106     0  03:46      5.48    0.03    0.56
  C5                   CONDUIT     0.038     0  03:50      1.24    0.66    0.65
  C6                   CONDUIT     0.038     0  03:52      1.15    0.61    0.48
  C7                   CONDUIT     0.092     0  03:51      1.22    0.02    0.55
  C8                   CONDUIT     0.081     0  05:07      2.12    1.02    0.78
  C9                   CONDUIT     0.079     0  05:13      1.13    0.27    0.39
  V1                   ORIFICE     0.271     0  04:38                      1.00
  V2                   ORIFICE     0.098     0  04:10                      1.00
  V3                   ORIFICE     0.185     0  08:26                      1.00
  V4                   ORIFICE     0.071     0  08:00                      1.00
  V5                   ORIFICE     0.034     0  06:58                      1.00
  V6                   ORIFICE     0.175     0  05:10                      1.00
  
  
  ***************************
  Flow Classification Summary
  ***************************
  
  -------------------------------------------------------------------------------------
                      Adjusted    ---------- Fraction of Time in Flow Class ---------- 
                       /Actual         Up    Down  Sub   Sup   Up    Down  Norm  Inlet 
  Conduit               Length    Dry  Dry   Dry   Crit  Crit  Crit  Crit  Ltd   Ctrl  
  -------------------------------------------------------------------------------------
  C1                      1.00   0.00  0.00  0.00  0.41  0.59  0.00  0.00  0.93  0.00
  C10                     1.00   0.00  0.00  0.00  0.96  0.04  0.00  0.00  0.97  0.00
  C11                     1.00   0.00  0.00  0.00  0.38  0.62  0.00  0.00  1.00  0.00
  C12                     1.00   0.00  0.00  0.00  0.88  0.12  0.00  0.00  0.98  0.00
  C13                     1.00   0.00  0.00  0.00  0.86  0.14  0.00  0.00  0.56  0.00
  C14                     1.00   0.01  0.00  0.00  0.01  0.98  0.00  0.00  0.45  0.00
  C15                     1.00   0.02  0.00  0.00  0.01  0.98  0.00  0.00  0.00  0.00
  C16                     1.00   0.00  0.02  0.00  0.20  0.77  0.00  0.00  0.22  0.00
  C17                     1.00   0.00  0.00  0.00  0.33  0.67  0.00  0.00  0.98  0.00
  C18                     1.00   0.00  0.00  0.00  0.88  0.12  0.00  0.00  0.97  0.00
  C19                     1.00   0.00  0.00  0.00  0.94  0.06  0.00  0.00  1.00  0.00
  C2                      1.00   0.00  0.00  0.00  0.58  0.42  0.00  0.00  0.99  0.00
  C20                     1.00   0.00  0.00  0.00  0.24  0.76  0.00  0.00  0.98  0.00
  C21                     1.00   0.00  0.00  0.00  0.00  1.00  0.00  0.00  0.00  0.00
  C22                     1.00   0.00  0.00  0.00  0.97  0.03  0.00  0.00  1.00  0.00
  C23                     1.00   0.00  0.00  0.00  0.88  0.12  0.00  0.00  0.94  0.00
  C3                      1.00   0.00  0.00  0.00  0.06  0.94  0.00  0.00  0.54  0.00
  C4                      1.00   0.00  0.00  0.00  0.95  0.05  0.00  0.00  0.98  0.00
  C5                      1.00   0.00  0.00  0.00  0.72  0.28  0.00  0.00  0.98  0.00
  C6                      1.00   0.00  0.00  0.00  0.01  0.99  0.00  0.00  0.00  0.00
  C7                      1.00   0.00  0.00  0.00  0.94  0.06  0.00  0.00  0.96  0.00
  C8                      1.00   0.00  0.00  0.00  0.03  0.97  0.00  0.00  0.00  0.00
  C9                      1.00   0.00  0.00  0.00  1.00  0.00  0.00  0.00  1.00  0.00
  
  
  *************************
  Conduit Surcharge Summary
  *************************
  
  ----------------------------------------------------------------------------
                                                           Hours        Hours 
                         --------- Hours Full --------   Above Full   Capacity
  Conduit                Both Ends  Upstream  Dnstream   Normal Flow   Limited
  ----------------------------------------------------------------------------
  C10                         0.01      0.01      5.54      0.01         0.01
  C13                         0.01      0.01      5.40      0.01         0.01
  C18                         0.01      0.01      5.20      0.01         0.01
  C23                         0.01      0.01      6.43      0.01         0.01
  C4                          0.01      0.01      6.36      0.01         0.01
  C7                          0.01      0.01      5.85      0.01         0.01
  C8                          0.01      0.08      0.01      0.06         0.01
  

  Analysis begun on:  Sun Jul 17 21:34:53 2022
  Analysis ended on:  Sun Jul 17 21:34:53 2022
  Total elapsed time: < 1 sec