
  EPA STORM WATER MANAGEMENT MODEL - VERSION 5.1 (Build 5.3.0.dev0)
  --------------------------------------------------------------

  
  *********************************************************
  NOTE: The summary statistics displayed in this report are
  based on results found at every computational time step,  
  not just on results from each reporting time step.
  *********************************************************
  
  ****************
  Analysis Options
  ****************
  Flow Units ............... CMS
  Process Models:
    Rainfall/Runoff ........ YES
    RDII ................... NO
    Snowmelt ............... NO
    Groundwater ............ NO
    Flow Routing ........... YES
    Ponding Allowed ........ NO
    Water Quality .......... NO
  Infiltration Method ...... HORTON
  Flow Routing Method ...... DYNWAVE
  Surcharge Method ......... EXTRAN
  Starting Date ............ 01/25/2007 13:05:00
  Ending Date .............. 01/26/2007 07:10:00
  Antecedent Dry Days ...... 0.0
  Report Time Step ......... 00:05:00
  Wet Time Step ............ 00:05:00
  Dry Time Step ............ 01:00:00
  Routing Time Step ........ 30.00 sec
  Variable Time Step ....... YES
  Maximum Trials ........... 8
  Number of Threads ........ 1
  Head Tolerance ........... 0.001500 m
  
  
  **************************        Volume         Depth
  Runoff Quantity Continuity     hectare-m            mm
  **************************     ---------       -------
  Total Precipitation ......         1.944        10.788
  Evaporation Loss .........         0.000         0.000
  Infiltration Loss ........         0.000         0.000
  Surface Runoff ...........         1.918        10.643
  Final Storage ............         0.027         0.150
  Continuity Error (%) .....        -0.044
  
  
  **************************        Volume        Volume
  Flow Routing Continuity        hectare-m      10^6 ltr
  **************************     ---------     ---------
  Dry Weather Inflow .......         0.460         4.595
  Wet Weather Inflow .......         1.918        19.176
  Groundwater Inflow .......         0.000         0.000
  RDII Inflow ..............         0.000         0.000
  External Inflow ..........         0.000         0.000
  External Outflow .........         1.430        14.298
  Flooding Loss ............         0.050         0.500
  Evaporation Loss .........         0.000         0.000
  Exfiltration Loss ........         0.000         0.000
  Initial Stored Volume ....         0.000         0.000
  Final Stored Volume ......         0.708         7.080
  Continuity Error (%) .....         7.968
  
  
  *************************
  Highest Continuity Errors
  *************************
  Node T2 (27.74%)
  Node T4 (15.61%)
  Node T3 (12.44%)
  Node T6 (9.17%)
  Node T5 (9.05%)
  
  
  ***************************
  Time-Step Critical Elements
  ***************************
  Link C15 (50.48%)
  
  
  ********************************
  Highest Flow Instability Indexes
  ********************************
  Link C13 (10)
  Link C23 (7)
  Link V3 (6)
  Link C11 (6)
  Link C3 (6)
  
  
  *************************
  Routing Time Step Summary
  *************************
  Minimum Time Step           :     0.04 sec
  Average Time Step           :    27.32 sec
  Maximum Time Step           :    30.00 sec
  Percent in Steady State     :     3.60
  Average Iterations per Step :     2.07
  Percent Not Converging      :     0.00
  
  
  ***************************
  Subcatchment Runoff Summary
  ***************************
  
  ------------------------------------------------------------------------------------------------------------------------------
                            Total      Total      Total      Total     Imperv       Perv      Total       Total     Peak  Runoff
                           Precip      Runon       Evap      Infil     Runoff     Runoff     Runoff      Runoff   Runoff   Coeff
  Subcatchment                 mm         mm         mm         mm         mm         mm         mm    10^6 ltr      CMS
  ------------------------------------------------------------------------------------------------------------------------------
  SC01                       9.78       0.00       0.00       0.00       9.68       0.00       9.68        3.19     0.13   0.990
  SC010                      9.78       0.00       0.00       0.00       9.65       0.00       9.65        1.13     0.04   0.987
  SC02                      11.67       0.00       0.00       0.00      11.57       0.00      11.57        2.63     0.13   0.991
  SC03                      11.69       0.00       0.00       0.00      11.61       0.00      11.61        2.09     0.10   0.993
  SC04                      11.67       0.00       0.00       0.00      11.47       0.00      11.47        0.79     0.03   0.983
  SC05                       9.78       0.00       0.00       0.00       9.67       0.00       9.67        1.51     0.06   0.989
  SC06                      10.51       0.00       0.00       0.00      10.24       0.00      10.24        3.33     0.14   0.975
  SC07                      11.67       0.00       0.00       0.00      11.47       0.00      11.47        0.55     0.02   0.983
  SC08                      11.69       0.00       0.00       0.00      11.55       0.00      11.55        3.23     0.14   0.988
  SC09                      10.51       0.00       0.00       0.00      10.34       0.00      10.34        0.71     0.03   0.984
  
  
  ******************
  Node Depth Summary
  ******************
  
  ---------------------------------------------------------------------------------
                                 Average  Maximum  Maximum  Time of Max    Reported
                                   Depth    Depth      HGL   Occurrence   Max Depth
  Node                 Type       Meters   Meters   Meters  days hr:min      Meters
  ---------------------------------------------------------------------------------
  CSO10                JUNCTION     0.11     0.17    30.17     0  07:51        0.17
  CSO7                 JUNCTION     0.08     0.13    34.13     0  03:30        0.13
  CSO8                 JUNCTION     0.13     0.22    32.22     0  07:50        0.22
  CSO9                 JUNCTION     0.10     0.16    40.16     0  08:05        0.16
  J1                   JUNCTION     0.06     0.09    34.09     0  07:52        0.09
  J10                  JUNCTION     0.09     0.15    29.15     0  07:55        0.15
  J11                  JUNCTION     0.10     0.16    31.16     0  07:56        0.16
  J12                  JUNCTION     0.53     1.01    27.01     0  13:41        1.01
  J13                  JUNCTION     0.06     0.10    29.10     0  03:30        0.10
  J14                  JUNCTION     0.13     0.19    20.19     0  13:22        0.19
  J15                  JUNCTION     0.17     0.22    15.22     0  08:01        0.21
  J16                  JUNCTION     0.06     0.10    30.10     0  07:51        0.10
  J17                  JUNCTION     0.06     0.13    20.13     0  08:00        0.13
  J18                  JUNCTION     0.05     0.08    29.08     0  07:55        0.08
  J19                  JUNCTION     0.15     0.17     8.17     0  10:05        0.17
  J2                   JUNCTION     0.06     0.07    25.07     0  09:08        0.07
  J3                   JUNCTION     0.11     0.16    18.16     0  10:01        0.16
  J4                   JUNCTION     0.10     0.16    33.16     0  03:34        0.16
  J5                   JUNCTION     0.06     0.09    32.09     0  03:33        0.09
  J6                   JUNCTION     0.06     0.11    25.11     0  15:55        0.11
  J7                   JUNCTION     0.07     0.12    39.12     0  08:08        0.12
  J8                   JUNCTION     0.10     0.14    36.14     0  08:08        0.14
  J9                   JUNCTION     0.10     0.16    29.16     0  08:29        0.16
  Out_to_WWTP          OUTFALL      0.15     0.17     6.17     0  11:54        0.17
  T1                   STORAGE      3.66     5.00    15.00     0  10:04        5.00
  T2                   STORAGE      3.08     4.70    25.70     0  13:15        4.70
  T3                   STORAGE      3.48     5.00    27.00     0  10:15        5.00
  T4                   STORAGE      2.76     4.19    31.19     0  11:50        4.19
  T5                   STORAGE      2.65     3.99    30.99     0  09:05        3.99
  T6                   STORAGE      2.97     4.61    35.61     0  11:15        4.61
  
  
  *******************
  Node Inflow Summary
  *******************
  
  -------------------------------------------------------------------------------------------------
                                  Maximum  Maximum                  Lateral       Total        Flow
                                  Lateral    Total  Time of Max      Inflow      Inflow     Balance
                                   Inflow   Inflow   Occurrence      Volume      Volume       Error
  Node                 Type           CMS      CMS  days hr:min    10^6 ltr    10^6 ltr     Percent
  -------------------------------------------------------------------------------------------------
  CSO10                JUNCTION     0.046    0.046     0  07:55         1.3         1.3       0.003
  CSO7                 JUNCTION     0.030    0.030     0  03:30       0.891       0.891       0.012
  CSO8                 JUNCTION     0.136    0.136     0  07:55        3.46        3.46      -0.064
  CSO9                 JUNCTION     0.036    0.036     0  08:05       0.947       0.949       0.015
  J1                   JUNCTION     0.072    0.072     0  07:50        2.18        2.18      -0.027
  J10                  JUNCTION     0.107    0.239     0  07:54        2.55        6.03      -0.250
  J11                  JUNCTION     0.000    0.136     0  07:55           0        3.47      -0.187
  J12                  JUNCTION     0.000    0.394     0  17:58           0        10.9       4.645
  J13                  JUNCTION     0.138    0.138     0  03:30        3.19        3.19      -0.263
  J14                  JUNCTION     0.000    0.190     0  10:34           0        6.19       0.212
  J15                  JUNCTION     0.000    0.480     0  08:00           0        15.8       0.418
  J16                  JUNCTION     0.141    0.141     0  07:50        3.85        3.86      -0.046
  J17                  JUNCTION     0.000    0.116     0  07:59           0        1.46      -0.109
  J18                  JUNCTION     0.000    0.046     0  07:55           0         1.3      -0.072
  J19                  JUNCTION     0.000    0.271     0  10:05           0        14.3       0.079
  J2                   JUNCTION     0.000    0.035     0  09:06           0        1.78       0.218
  J3                   JUNCTION     0.000    0.252     0  12:03           0        9.17       0.199
  J4                   JUNCTION     0.000    0.030     0  03:30           0       0.891       0.265
  J5                   JUNCTION     0.036    0.065     0  03:31       0.944        1.83      -0.019
  J6                   JUNCTION     0.000    0.068     0  15:50           0        1.21      -0.082
  J7                   JUNCTION     0.000    0.036     0  08:06           0       0.949       0.200
  J8                   JUNCTION     0.152    0.186     0  08:05        4.46        5.41       0.023
  J9                   JUNCTION     0.000    0.168     0  11:15           0         4.6      -0.281
  Out_to_WWTP          OUTFALL      0.000    0.271     0  10:05           0        14.3       0.000
  T1                   STORAGE      0.000    0.418     0  08:01           0        15.7       4.092
  T2                   STORAGE      0.000    0.137     0  03:30           0         3.2      38.396
  T3                   STORAGE      0.000    0.544     0  18:03           0        10.4      14.212
  T4                   STORAGE      0.000    0.065     0  03:33           0        1.83      18.503
  T5                   STORAGE      0.000    0.072     0  07:52           0        2.18       9.953
  T6                   STORAGE      0.000    0.184     0  08:08           0        5.41      10.099
  
  
  **********************
  Node Surcharge Summary
  **********************
  
  No nodes were surcharged.
  
  
  *********************
  Node Flooding Summary
  *********************
  
  Flooding refers to all water that overflows a node, whether it ponds or not.
  --------------------------------------------------------------------------
                                                             Total   Maximum
                                 Maximum   Time of Max       Flood    Ponded
                        Hours       Rate    Occurrence      Volume     Depth
  Node                 Flooded       CMS   days hr:min    10^6 ltr    Meters
  --------------------------------------------------------------------------
  T1                      1.70     0.097      0  10:06       0.269     0.000
  T3                      0.88     0.153      0  12:34       0.231     0.000
  
  
  **********************
  Storage Volume Summary
  **********************
  
  --------------------------------------------------------------------------------------------------
                         Average     Avg  Evap Exfil       Maximum     Max    Time of Max    Maximum
                          Volume    Pcnt  Pcnt  Pcnt        Volume    Pcnt     Occurrence    Outflow
  Storage Unit           1000 m3    Full  Loss  Loss       1000 m3    Full    days hr:min        CMS
  --------------------------------------------------------------------------------------------------
  T1                       0.512      73     0     0         0.700     100       0  10:04      0.271
  T2                       0.617      62     0     0         0.940      94       0  13:15      0.116
  T3                       1.811      70     0     0         2.600     100       0  10:15      0.403
  T4                       0.276      55     0     0         0.419      84       0  11:50      0.068
  T5                       0.265      53     0     0         0.399      80       0  09:05      0.035
  T6                       0.356      59     0     0         0.553      92       0  11:15      0.168
  
  
  ***********************
  Outfall Loading Summary
  ***********************
  
  -----------------------------------------------------------
                         Flow       Avg       Max       Total
                         Freq      Flow      Flow      Volume
  Outfall Node           Pcnt       CMS       CMS    10^6 ltr
  -----------------------------------------------------------
  Out_to_WWTP           99.62     0.222     0.271      14.297
  -----------------------------------------------------------
  System                99.62     0.222     0.271      14.297
  
  
  ********************
  Link Flow Summary
  ********************
  
  -----------------------------------------------------------------------------
                                 Maximum  Time of Max   Maximum    Max/    Max/
                                  |Flow|   Occurrence   |Veloc|    Full    Full
  Link                 Type          CMS  days hr:min     m/sec    Flow   Depth
  -----------------------------------------------------------------------------
  C1                   CONDUIT     0.035     0  09:08      1.01    0.01    0.11
  C10                  CONDUIT     0.184     0  08:08      1.81    0.02    0.55
  C11                  CONDUIT     0.249     0  10:01      1.97    0.01    0.09
  C12                  CONDUIT     0.165     0  08:29      1.30    0.01    0.29
  C13                  CONDUIT     0.544     0  18:03      1.62    0.03    0.75
  C14                  CONDUIT     0.271     0  10:05      2.08    0.02    0.09
  C15                  CONDUIT     0.136     0  07:55      2.16    0.43    0.42
  C16                  CONDUIT     0.135     0  07:56      1.19    0.01    0.08
  C17                  CONDUIT     0.237     0  07:55      1.90    0.01    0.27
  C18                  CONDUIT     0.137     0  03:30      3.17    0.01    0.52
  C19                  CONDUIT     0.113     0  08:00      1.23    0.04    0.17
  C2                   CONDUIT     0.067     0  15:55      1.66    0.08    0.21
  C20                  CONDUIT     0.141     0  07:52      3.22    0.00    0.08
  C21                  CONDUIT     0.046     0  07:55      1.31    0.26    0.28
  C22                  CONDUIT     0.045     0  07:55      0.80    0.02    0.18
  C23                  CONDUIT     0.418     0  08:01      1.35    0.05    0.57
  C3                   CONDUIT     0.193     0  12:03      2.29    0.07    0.17
  C4                   CONDUIT     0.072     0  07:52      3.10    0.02    0.55
  C5                   CONDUIT     0.030     0  03:30      1.34    0.51    0.56
  C6                   CONDUIT     0.030     0  03:34      1.10    0.47    0.41
  C7                   CONDUIT     0.065     0  03:33      1.57    0.02    0.54
  C8                   CONDUIT     0.036     0  08:06      1.11    0.45    0.43
  C9                   CONDUIT     0.035     0  08:08      0.86    0.12    0.26
  V1                   ORIFICE     0.271     0  10:05                      1.00
  V2                   ORIFICE     0.116     0  07:59                      1.00
  V3                   ORIFICE     0.190     0  10:34                      1.00
  V4                   ORIFICE     0.068     0  15:50                      1.00
  V5                   ORIFICE     0.035     0  09:06                      1.00
  V6                   ORIFICE     0.168     0  11:15                      1.00
  
  
  ***************************
  Flow Classification Summary
  ***************************
  
  -------------------------------------------------------------------------------------
                      Adjusted    ---------- Fraction of Time in Flow Class ---------- 
                       /Actual         Up    Down  Sub   Sup   Up    Down  Norm  Inlet 
  Conduit               Length    Dry  Dry   Dry   Crit  Crit  Crit  Crit  Ltd   Ctrl  
  -------------------------------------------------------------------------------------
  C1                      1.00   0.00  0.00  0.00  0.56  0.43  0.00  0.00  0.98  0.00
  C10                     1.00   0.00  0.00  0.00  0.98  0.02  0.00  0.00  0.99  0.00
  C11                     1.00   0.00  0.00  0.00  0.14  0.86  0.00  0.00  1.00  0.00
  C12                     1.00   0.00  0.00  0.00  0.89  0.11  0.00  0.00  1.00  0.00
  C13                     1.00   0.00  0.00  0.00  0.96  0.04  0.00  0.00  0.39  0.00
  C14                     1.00   0.00  0.00  0.00  0.00  0.99  0.00  0.00  0.45  0.00
  C15                     1.00   0.00  0.00  0.00  0.00  1.00  0.00  0.00  0.00  0.00
  C16                     1.00   0.00  0.00  0.00  0.25  0.75  0.00  0.00  0.19  0.00
  C17                     1.00   0.00  0.00  0.00  0.53  0.47  0.00  0.00  0.99  0.00
  C18                     1.00   0.00  0.00  0.00  0.98  0.02  0.00  0.00  0.99  0.00
  C19                     1.00   0.00  0.00  0.00  0.98  0.02  0.00  0.00  1.00  0.00
  C2                      1.00   0.00  0.00  0.00  0.68  0.32  0.00  0.00  0.98  0.00
  C20                     1.00   0.00  0.00  0.00  0.51  0.49  0.00  0.00  0.99  0.00
  C21                     1.00   0.00  0.00  0.00  0.00  1.00  0.00  0.00  0.00  0.00
  C22                     1.00   0.00  0.00  0.00  0.99  0.01  0.00  0.00  1.00  0.00
  C23                     1.00   0.00  0.00  0.00  0.96  0.04  0.00  0.00  0.98  0.00
  C3                      1.00   0.00  0.00  0.00  0.02  0.98  0.00  0.00  0.41  0.00
  C4                      1.00   0.00  0.00  0.00  0.99  0.01  0.00  0.00  0.99  0.00
  C5                      1.00   0.00  0.00  0.00  0.91  0.09  0.00  0.00  0.99  0.00
  C6                      1.00   0.00  0.00  0.00  0.00  1.00  0.00  0.00  0.00  0.00
  C7                      1.00   0.00  0.00  0.00  0.98  0.02  0.00  0.00  0.99  0.00
  C8                      1.00   0.00  0.00  0.00  0.00  1.00  0.00  0.00  0.00  0.00
  C9                      1.00   0.00  0.00  0.00  1.00  0.00  0.00  0.00  1.00  0.00
  
  
  *************************
  Conduit Surcharge Summary
  *************************
  
  ----------------------------------------------------------------------------
                                                           Hours        Hours 
                         --------- Hours Full --------   Above Full   Capacity
  Conduit                Both Ends  Upstream  Dnstream   Normal Flow   Limited
  ----------------------------------------------------------------------------
  C10                         0.01      0.01     13.82      0.01         0.01
  C13                         0.01      0.01     13.68      0.01         0.01
  C18                         0.01      0.01     13.03      0.01         0.01
  C23                         0.01      0.01     15.39      0.01         0.01
  C4                          0.01      0.01     15.68      0.01         0.01
  C7                          0.01      0.01     14.51      0.01         0.01
  

  Analysis begun on:  Sun Jul 17 19:34:26 2022
  Analysis ended on:  Sun Jul 17 19:34:27 2022
  Total elapsed time: 00:00:01