
  EPA STORM WATER MANAGEMENT MODEL - VERSION 5.1 (Build 5.3.0.dev0)
  --------------------------------------------------------------

  
  *********************************************************
  NOTE: The summary statistics displayed in this report are
  based on results found at every computational time step,  
  not just on results from each reporting time step.
  *********************************************************
  
  ****************
  Analysis Options
  ****************
  Flow Units ............... CMS
  Process Models:
    Rainfall/Runoff ........ YES
    RDII ................... NO
    Snowmelt ............... NO
    Groundwater ............ NO
    Flow Routing ........... YES
    Ponding Allowed ........ NO
    Water Quality .......... NO
  Infiltration Method ...... HORTON
  Flow Routing Method ...... DYNWAVE
  Surcharge Method ......... EXTRAN
  Starting Date ............ 11/14/2009 15:00:00
  Ending Date .............. 11/14/2009 21:40:00
  Antecedent Dry Days ...... 0.0
  Report Time Step ......... 00:05:00
  Wet Time Step ............ 00:05:00
  Dry Time Step ............ 01:00:00
  Routing Time Step ........ 30.00 sec
  Variable Time Step ....... YES
  Maximum Trials ........... 8
  Number of Threads ........ 1
  Head Tolerance ........... 0.001500 m
  
  
  **************************        Volume         Depth
  Runoff Quantity Continuity     hectare-m            mm
  **************************     ---------       -------
  Total Precipitation ......         1.950        10.822
  Evaporation Loss .........         0.000         0.000
  Infiltration Loss ........         0.000         0.000
  Surface Runoff ...........         1.919        10.649
  Final Storage ............         0.038         0.208
  Continuity Error (%) .....        -0.329
  
  
  **************************        Volume        Volume
  Flow Routing Continuity        hectare-m      10^6 ltr
  **************************     ---------     ---------
  Dry Weather Inflow .......         0.225         2.247
  Wet Weather Inflow .......         1.919        19.186
  Groundwater Inflow .......         0.000         0.000
  RDII Inflow ..............         0.000         0.000
  External Inflow ..........         0.000         0.000
  External Outflow .........         0.461         4.606
  Flooding Loss ............         0.625         6.248
  Evaporation Loss .........         0.000         0.000
  Exfiltration Loss ........         0.000         0.000
  Initial Stored Volume ....         0.000         0.000
  Final Stored Volume ......         0.790         7.905
  Continuity Error (%) .....        12.479
  
  
  *************************
  Highest Continuity Errors
  *************************
  Node T2 (39.61%)
  Node T4 (26.94%)
  Node T5 (21.10%)
  Node T3 (19.94%)
  Node T6 (14.81%)
  
  
  ***************************
  Time-Step Critical Elements
  ***************************
  Link C15 (55.85%)
  
  
  ********************************
  Highest Flow Instability Indexes
  ********************************
  Link C13 (7)
  Link C15 (2)
  Link C20 (2)
  Link C8 (2)
  Link C23 (2)
  
  
  *************************
  Routing Time Step Summary
  *************************
  Minimum Time Step           :     0.85 sec
  Average Time Step           :    22.84 sec
  Maximum Time Step           :    30.00 sec
  Percent in Steady State     :     5.41
  Average Iterations per Step :     3.20
  Percent Not Converging      :     3.12
  
  
  ***************************
  Subcatchment Runoff Summary
  ***************************
  
  ------------------------------------------------------------------------------------------------------------------------------
                            Total      Total      Total      Total     Imperv       Perv      Total       Total     Peak  Runoff
                           Precip      Runon       Evap      Infil     Runoff     Runoff     Runoff      Runoff   Runoff   Coeff
  Subcatchment                 mm         mm         mm         mm         mm         mm         mm    10^6 ltr      CMS
  ------------------------------------------------------------------------------------------------------------------------------
  SC01                      11.07       0.00       0.00       0.00      11.00       0.00      11.00        3.63     1.13   0.993
  SC010                     11.07       0.00       0.00       0.00      10.93       0.00      10.93        1.28     0.34   0.987
  SC02                       9.17       0.00       0.00       0.00       9.05       0.00       9.05        2.06     0.55   0.987
  SC03                      10.06       0.00       0.00       0.00      10.01       0.00      10.01        1.80     0.35   0.995
  SC04                       9.17       0.00       0.00       0.00       8.85       0.00       8.85        0.61     0.14   0.966
  SC05                      11.07       0.00       0.00       0.00      10.98       0.00      10.98        1.71     0.51   0.992
  SC06                      12.77       0.00       0.00       0.00      12.38       0.00      12.38        4.03     0.61   0.970
  SC07                       9.17       0.00       0.00       0.00       8.86       0.00       8.86        0.42     0.09   0.966
  SC08                      10.06       0.00       0.00       0.00       9.90       0.00       9.90        2.77     0.47   0.984
  SC09                      12.77       0.00       0.00       0.00      12.58       0.00      12.58        0.87     0.17   0.985
  
  
  ******************
  Node Depth Summary
  ******************
  
  ---------------------------------------------------------------------------------
                                 Average  Maximum  Maximum  Time of Max    Reported
                                   Depth    Depth      HGL   Occurrence   Max Depth
  Node                 Type       Meters   Meters   Meters  days hr:min      Meters
  ---------------------------------------------------------------------------------
  CSO10                JUNCTION     0.23     1.00    31.00     0  02:22        1.00
  CSO7                 JUNCTION     0.31     1.20    35.20     0  03:05        1.20
  CSO8                 JUNCTION     0.35     1.91    33.91     0  03:20        1.91
  CSO9                 JUNCTION     0.53     2.00    42.00     0  02:12        2.00
  J1                   JUNCTION     0.10     0.24    34.24     0  02:25        0.23
  J10                  JUNCTION     0.14     0.27    29.27     0  03:22        0.27
  J11                  JUNCTION     0.15     0.29    31.29     0  03:22        0.29
  J12                  JUNCTION     0.49     1.02    27.02     0  03:59        1.02
  J13                  JUNCTION     0.08     0.20    29.20     0  03:15        0.20
  J14                  JUNCTION     0.12     0.19    20.19     0  03:52        0.19
  J15                  JUNCTION     0.21     0.37    15.37     0  02:28        0.37
  J16                  JUNCTION     0.10     0.26    30.26     0  02:25        0.25
  J17                  JUNCTION     0.06     0.14    20.14     0  04:14        0.14
  J18                  JUNCTION     0.08     0.16    29.16     0  02:33        0.16
  J19                  JUNCTION     0.14     0.17     8.17     0  02:42        0.17
  J2                   JUNCTION     0.06     0.08    25.08     0  04:10        0.08
  J3                   JUNCTION     0.11     0.17    18.17     0  04:05        0.17
  J4                   JUNCTION     0.23     1.01    34.01     0  03:05        0.75
  J5                   JUNCTION     0.08     0.15    32.15     0  03:16        0.15
  J6                   JUNCTION     0.06     0.11    25.11     0  04:05        0.11
  J7                   JUNCTION     0.13     0.23    39.23     0  02:25        0.23
  J8                   JUNCTION     0.16     0.28    36.28     0  02:17        0.28
  J9                   JUNCTION     0.12     0.16    29.16     0  04:05        0.16
  Out_to_WWTP          OUTFALL      0.14     0.17     6.17     0  06:07        0.17
  T1                   STORAGE      3.46     5.00    15.00     0  02:40        5.00
  T2                   STORAGE      2.21     4.60    25.60     0  06:01        4.60
  T3                   STORAGE      2.93     5.00    27.00     0  03:51        5.00
  T4                   STORAGE      1.87     4.07    31.07     0  05:11        4.07
  T5                   STORAGE      3.22     5.00    32.00     0  03:15        5.00
  T6                   STORAGE      3.45     5.00    36.00     0  02:44        5.00
  
  
  *******************
  Node Inflow Summary
  *******************
  
  -------------------------------------------------------------------------------------------------
                                  Maximum  Maximum                  Lateral       Total        Flow
                                  Lateral    Total  Time of Max      Inflow      Inflow     Balance
                                   Inflow   Inflow   Occurrence      Volume      Volume       Error
  Node                 Type           CMS      CMS  days hr:min    10^6 ltr    10^6 ltr     Percent
  -------------------------------------------------------------------------------------------------
  CSO10                JUNCTION     0.342    0.342     0  02:25        1.36        1.37      -0.193
  CSO7                 JUNCTION     0.100    0.100     0  03:15        0.59       0.591      -0.171
  CSO8                 JUNCTION     0.474    0.474     0  03:20        2.88        2.89      -0.086
  CSO9                 JUNCTION     0.176    0.176     0  02:15       0.982       0.982      -0.116
  J1                   JUNCTION     0.525    0.525     0  02:25        2.04        2.04      -0.345
  J10                  JUNCTION     0.356    0.809     0  03:21        2.03        4.93      -0.462
  J11                  JUNCTION     0.000    0.474     0  03:20           0        2.89      -0.470
  J12                  JUNCTION     0.000    0.977     0  03:22           0        7.19       9.972
  J13                  JUNCTION     0.560    0.560     0  03:15        2.33        2.34      -0.601
  J14                  JUNCTION     0.000    0.190     0  03:51           0        2.28       0.201
  J15                  JUNCTION     0.000    1.444     0  02:25           0        9.23       0.171
  J16                  JUNCTION     1.148    1.148     0  02:25        3.95        3.96      -0.404
  J17                  JUNCTION     0.000    0.132     0  04:06           0       0.503       0.049
  J18                  JUNCTION     0.000    0.202     0  02:33           0        1.33      -0.575
  J19                  JUNCTION     0.000    0.271     0  02:40           0        4.62       0.264
  J2                   JUNCTION     0.000    0.039     0  03:16           0       0.662       0.805
  J3                   JUNCTION     0.000    0.296     0  04:05           0        3.45       0.814
  J4                   JUNCTION     0.000    0.081     0  03:05           0       0.543      -0.612
  J5                   JUNCTION     0.138    0.209     0  03:15       0.686        1.23      -0.364
  J6                   JUNCTION     0.000    0.067     0  04:05           0       0.524       0.684
  J7                   JUNCTION     0.000    0.127     0  02:25           0       0.963      -0.294
  J8                   JUNCTION     0.632    0.745     0  02:15        4.58        5.55      -0.313
  J9                   JUNCTION     0.000    0.175     0  02:44           0        2.24       0.048
  Out_to_WWTP          OUTFALL      0.000    0.271     0  02:42           0        4.61       0.000
  T1                   STORAGE      0.000    1.226     0  02:28           0        9.22       8.725
  T2                   STORAGE      0.000    0.555     0  03:15           0        2.35      65.590
  T3                   STORAGE      0.000    0.956     0  03:23           0        6.54      24.907
  T4                   STORAGE      0.000    0.208     0  03:16           0        1.24      36.879
  T5                   STORAGE      0.000    0.513     0  02:25           0        2.05      26.738
  T6                   STORAGE      0.000    0.739     0  02:18           0        5.57      17.384
  
  
  **********************
  Node Surcharge Summary
  **********************
  
  Surcharging occurs when water rises above the top of the highest conduit.
  ---------------------------------------------------------------------
                                               Max. Height   Min. Depth
                                   Hours       Above Crown    Below Rim
  Node                 Type      Surcharged         Meters       Meters
  ---------------------------------------------------------------------
  CSO10                JUNCTION        0.34          0.560        0.000
  CSO7                 JUNCTION        0.93          0.945        0.000
  CSO8                 JUNCTION        0.73          1.456        0.091
  CSO9                 JUNCTION        1.56          1.682        0.000
  J4                   JUNCTION        0.95          0.707        0.993
  
  
  *********************
  Node Flooding Summary
  *********************
  
  Flooding refers to all water that overflows a node, whether it ponds or not.
  --------------------------------------------------------------------------
                                                             Total   Maximum
                                 Maximum   Time of Max       Flood    Ponded
                        Hours       Rate    Occurrence      Volume     Depth
  Node                 Flooded       CMS   days hr:min    10^6 ltr    Meters
  --------------------------------------------------------------------------
  CSO10                   0.20     0.137      0  02:25       0.043     0.000
  CSO7                    0.78     0.029      0  03:15       0.049     0.000
  CSO9                    0.22     0.051      0  02:15       0.020     0.000
  T1                      3.33     0.621      0  03:46       3.223     0.000
  T3                      1.00     0.560      0  03:51       0.486     0.000
  T5                      1.55     0.178      0  03:46       0.519     0.000
  T6                      2.07     0.498      0  03:21       1.903     0.000
  
  
  **********************
  Storage Volume Summary
  **********************
  
  --------------------------------------------------------------------------------------------------
                         Average     Avg  Evap Exfil       Maximum     Max    Time of Max    Maximum
                          Volume    Pcnt  Pcnt  Pcnt        Volume    Pcnt     Occurrence    Outflow
  Storage Unit           1000 m3    Full  Loss  Loss       1000 m3    Full    days hr:min        CMS
  --------------------------------------------------------------------------------------------------
  T1                       0.484      69     0     0         0.700     100       0  02:40      0.271
  T2                       0.443      44     0     0         0.920      92       0  06:01      0.132
  T3                       1.524      59     0     0         2.600     100       0  03:51      0.190
  T4                       0.187      37     0     0         0.407      81       0  05:11      0.067
  T5                       0.322      64     0     0         0.500     100       0  03:15      0.039
  T6                       0.414      69     0     0         0.600     100       0  02:44      0.175
  
  
  ***********************
  Outfall Loading Summary
  ***********************
  
  -----------------------------------------------------------
                         Flow       Avg       Max       Total
                         Freq      Flow      Flow      Volume
  Outfall Node           Pcnt       CMS       CMS    10^6 ltr
  -----------------------------------------------------------
  Out_to_WWTP           98.94     0.203     0.271       4.606
  -----------------------------------------------------------
  System                98.94     0.203     0.271       4.606
  
  
  ********************
  Link Flow Summary
  ********************
  
  -----------------------------------------------------------------------------
                                 Maximum  Time of Max   Maximum    Max/    Max/
                                  |Flow|   Occurrence   |Veloc|    Full    Full
  Link                 Type          CMS  days hr:min     m/sec    Flow   Depth
  -----------------------------------------------------------------------------
  C1                   CONDUIT     0.039     0  04:04      1.05    0.01    0.12
  C10                  CONDUIT     0.739     0  02:18      1.62    0.08    0.59
  C11                  CONDUIT     0.296     0  04:05      1.92    0.01    0.12
  C12                  CONDUIT     0.175     0  03:55      0.99    0.01    0.29
  C13                  CONDUIT     0.956     0  03:23      1.56    0.06    0.75
  C14                  CONDUIT     0.271     0  02:42      2.08    0.02    0.09
  C15                  CONDUIT     0.474     0  03:20      3.36    1.51    0.82
  C16                  CONDUIT     0.467     0  03:22      1.73    0.04    0.14
  C17                  CONDUIT     0.802     0  03:22      2.78    0.04    0.30
  C18                  CONDUIT     0.555     0  03:15      3.92    0.02    0.55
  C19                  CONDUIT     0.131     0  04:14      1.10    0.05    0.23
  C2                   CONDUIT     0.067     0  04:05      1.45    0.08    0.23
  C20                  CONDUIT     1.119     0  02:25      3.78    0.04    0.15
  C21                  CONDUIT     0.202     0  02:33      1.85    1.16    0.69
  C22                  CONDUIT     0.202     0  02:33      1.60    0.09    0.34
  C23                  CONDUIT     1.226     0  02:28      1.25    0.14    0.62
  C3                   CONDUIT     0.191     0  03:52      2.10    0.07    0.18
  C4                   CONDUIT     0.513     0  02:25      3.48    0.12    0.62
  C5                   CONDUIT     0.081     0  03:05      1.58    1.38    1.00
  C6                   CONDUIT     0.071     0  03:16      1.30    1.13    0.76
  C7                   CONDUIT     0.208     0  03:16      1.41    0.05    0.58
  C8                   CONDUIT     0.127     0  02:25      1.81    1.60    0.86
  C9                   CONDUIT     0.127     0  02:25      1.30    0.43    0.51
  V1                   ORIFICE     0.271     0  02:40                      1.00
  V2                   ORIFICE     0.132     0  04:06                      1.00
  V3                   ORIFICE     0.190     0  03:51                      1.00
  V4                   ORIFICE     0.067     0  04:05                      1.00
  V5                   ORIFICE     0.039     0  03:16                      1.00
  V6                   ORIFICE     0.175     0  02:44                      1.00
  
  
  ***************************
  Flow Classification Summary
  ***************************
  
  -------------------------------------------------------------------------------------
                      Adjusted    ---------- Fraction of Time in Flow Class ---------- 
                       /Actual         Up    Down  Sub   Sup   Up    Down  Norm  Inlet 
  Conduit               Length    Dry  Dry   Dry   Crit  Crit  Crit  Crit  Ltd   Ctrl  
  -------------------------------------------------------------------------------------
  C1                      1.00   0.00  0.00  0.00  0.50  0.50  0.00  0.00  0.93  0.00
  C10                     1.00   0.00  0.00  0.00  0.96  0.04  0.00  0.00  0.97  0.00
  C11                     1.00   0.00  0.00  0.00  0.52  0.47  0.00  0.00  1.00  0.00
  C12                     1.00   0.00  0.00  0.00  0.87  0.12  0.00  0.00  1.00  0.00
  C13                     1.00   0.00  0.00  0.00  0.85  0.15  0.00  0.00  0.39  0.00
  C14                     1.00   0.00  0.00  0.00  0.01  0.98  0.00  0.00  0.08  0.00
  C15                     1.00   0.00  0.00  0.00  0.00  1.00  0.00  0.00  0.00  0.00
  C16                     1.00   0.00  0.00  0.00  0.35  0.65  0.00  0.00  0.39  0.00
  C17                     1.00   0.00  0.00  0.00  0.43  0.57  0.00  0.00  0.95  0.00
  C18                     1.00   0.00  0.00  0.00  0.95  0.05  0.00  0.00  0.97  0.00
  C19                     1.00   0.00  0.00  0.00  1.00  0.00  0.00  0.00  1.00  0.00
  C2                      1.00   0.00  0.00  0.00  0.51  0.49  0.00  0.00  0.97  0.00
  C20                     1.00   0.00  0.00  0.00  0.36  0.64  0.00  0.00  0.98  0.00
  C21                     1.00   0.00  0.00  0.00  0.01  0.99  0.00  0.00  0.00  0.00
  C22                     1.00   0.00  0.00  0.00  0.57  0.43  0.00  0.00  1.00  0.00
  C23                     1.00   0.00  0.00  0.00  0.88  0.12  0.00  0.00  0.94  0.00
  C3                      1.00   0.00  0.00  0.00  0.05  0.95  0.00  0.00  0.31  0.00
  C4                      1.00   0.00  0.00  0.00  0.96  0.04  0.00  0.00  0.98  0.00
  C5                      1.00   0.00  0.00  0.00  0.87  0.13  0.00  0.00  0.83  0.00
  C6                      1.00   0.00  0.00  0.00  0.24  0.76  0.00  0.00  0.00  0.00
  C7                      1.00   0.00  0.00  0.00  0.95  0.05  0.00  0.00  0.96  0.00
  C8                      1.00   0.00  0.00  0.00  0.36  0.64  0.00  0.00  0.00  0.00
  C9                      1.00   0.00  0.00  0.00  1.00  0.00  0.00  0.00  1.00  0.00
  
  
  *************************
  Conduit Surcharge Summary
  *************************
  
  ----------------------------------------------------------------------------
                                                           Hours        Hours 
                         --------- Hours Full --------   Above Full   Capacity
  Conduit                Both Ends  Upstream  Dnstream   Normal Flow   Limited
  ----------------------------------------------------------------------------
  C10                         0.01      0.01      4.47      0.01         0.01
  C13                         0.01      0.01      4.06      0.01         0.01
  C15                         0.01      0.73      0.01      0.98         0.01
  C18                         0.01      0.01      3.40      0.01         0.01
  C21                         0.01      0.34      0.01      0.32         0.01
  C23                         0.01      0.01      4.60      0.01         0.01
  C4                          0.01      0.01      4.67      0.01         0.01
  C5                          0.90      0.93      1.03      0.95         0.88
  C6                          0.01      0.95      0.01      0.82         0.01
  C7                          0.01      0.01      3.56      0.01         0.01
  C8                          0.01      1.55      0.01      1.56         0.01
  

  Analysis begun on:  Sun Jul 17 21:49:08 2022
  Analysis ended on:  Sun Jul 17 21:49:08 2022
  Total elapsed time: < 1 sec