
  EPA STORM WATER MANAGEMENT MODEL - VERSION 5.1 (Build 5.3.0.dev0)
  --------------------------------------------------------------

  
  *********************************************************
  NOTE: The summary statistics displayed in this report are
  based on results found at every computational time step,  
  not just on results from each reporting time step.
  *********************************************************
  
  ****************
  Analysis Options
  ****************
  Flow Units ............... CMS
  Process Models:
    Rainfall/Runoff ........ YES
    RDII ................... NO
    Snowmelt ............... NO
    Groundwater ............ NO
    Flow Routing ........... YES
    Ponding Allowed ........ NO
    Water Quality .......... NO
  Infiltration Method ...... HORTON
  Flow Routing Method ...... DYNWAVE
  Surcharge Method ......... EXTRAN
  Starting Date ............ 07/01/2008 00:00:00
  Ending Date .............. 07/01/2008 18:55:00
  Antecedent Dry Days ...... 0.0
  Report Time Step ......... 00:05:00
  Wet Time Step ............ 00:05:00
  Dry Time Step ............ 01:00:00
  Routing Time Step ........ 30.00 sec
  Variable Time Step ....... YES
  Maximum Trials ........... 8
  Number of Threads ........ 1
  Head Tolerance ........... 0.001500 m
  
  
  **************************        Volume         Depth
  Runoff Quantity Continuity     hectare-m            mm
  **************************     ---------       -------
  Total Precipitation ......         1.093         6.065
  Evaporation Loss .........         0.000         0.000
  Infiltration Loss ........         0.000         0.000
  Surface Runoff ...........         1.073         5.957
  Final Storage ............         0.022         0.124
  Continuity Error (%) .....        -0.270
  
  
  **************************        Volume        Volume
  Flow Routing Continuity        hectare-m      10^6 ltr
  **************************     ---------     ---------
  Dry Weather Inflow .......         0.655         6.555
  Wet Weather Inflow .......         1.073        10.735
  Groundwater Inflow .......         0.000         0.000
  RDII Inflow ..............         0.000         0.000
  External Inflow ..........         0.000         0.000
  External Outflow .........         0.938         9.385
  Flooding Loss ............         0.002         0.021
  Evaporation Loss .........         0.000         0.000
  Exfiltration Loss ........         0.000         0.000
  Initial Stored Volume ....         0.000         0.000
  Final Stored Volume ......         0.640         6.397
  Continuity Error (%) .....         8.599
  
  
  *************************
  Highest Continuity Errors
  *************************
  Node T2 (25.08%)
  Node T6 (17.20%)
  Node T3 (11.76%)
  Node T5 (10.48%)
  Node J12 (8.53%)
  
  
  ***************************
  Time-Step Critical Elements
  ***************************
  Link C15 (22.09%)
  
  
  ********************************
  Highest Flow Instability Indexes
  ********************************
  Link C13 (5)
  Link C11 (2)
  Link C23 (2)
  Link C15 (2)
  Link C3 (2)
  
  
  *************************
  Routing Time Step Summary
  *************************
  Minimum Time Step           :     0.22 sec
  Average Time Step           :    27.73 sec
  Maximum Time Step           :    30.00 sec
  Percent in Steady State     :    10.48
  Average Iterations per Step :     2.13
  Percent Not Converging      :     0.09
  
  
  ***************************
  Subcatchment Runoff Summary
  ***************************
  
  ------------------------------------------------------------------------------------------------------------------------------
                            Total      Total      Total      Total     Imperv       Perv      Total       Total     Peak  Runoff
                           Precip      Runon       Evap      Infil     Runoff     Runoff     Runoff      Runoff   Runoff   Coeff
  Subcatchment                 mm         mm         mm         mm         mm         mm         mm    10^6 ltr      CMS
  ------------------------------------------------------------------------------------------------------------------------------
  SC01                       3.62       0.00       0.00       0.00       3.52       0.00       3.52        1.16     0.16   0.974
  SC010                      3.62       0.00       0.00       0.00       3.49       0.00       3.49        0.41     0.04   0.965
  SC02                       5.73       0.00       0.00       0.00       5.65       0.00       5.65        1.29     0.17   0.986
  SC03                       8.48       0.00       0.00       0.00       8.45       0.00       8.45        1.52     0.39   0.997
  SC04                       5.73       0.00       0.00       0.00       5.56       0.00       5.56        0.38     0.04   0.970
  SC05                       3.62       0.00       0.00       0.00       3.52       0.00       3.52        0.55     0.07   0.972
  SC06                       7.28       0.00       0.00       0.00       7.09       0.00       7.09        2.31     0.27   0.975
  SC07                       5.73       0.00       0.00       0.00       5.56       0.00       5.56        0.26     0.03   0.970
  SC08                       8.48       0.00       0.00       0.00       8.40       0.00       8.40        2.35     0.42   0.991
  SC09                       7.28       0.00       0.00       0.00       7.17       0.00       7.17        0.49     0.07   0.985
  
  
  ******************
  Node Depth Summary
  ******************
  
  ---------------------------------------------------------------------------------
                                 Average  Maximum  Maximum  Time of Max    Reported
                                   Depth    Depth      HGL   Occurrence   Max Depth
  Node                 Type       Meters   Meters   Meters  days hr:min      Meters
  ---------------------------------------------------------------------------------
  CSO10                JUNCTION     0.07     0.16    30.16     0  00:37        0.16
  CSO7                 JUNCTION     0.07     0.12    34.12     0  00:51        0.12
  CSO8                 JUNCTION     0.13     1.68    33.68     0  12:10        1.68
  CSO9                 JUNCTION     0.08     0.28    40.28     0  12:31        0.28
  J1                   JUNCTION     0.05     0.10    34.10     0  12:15        0.10
  J10                  JUNCTION     0.08     0.27    29.27     0  12:03        0.27
  J11                  JUNCTION     0.08     0.28    31.28     0  12:10        0.28
  J12                  JUNCTION     0.29     0.73    26.73     0  15:11        0.73
  J13                  JUNCTION     0.05     0.11    29.11     0  00:41        0.11
  J14                  JUNCTION     0.10     0.16    20.16     0  11:28        0.16
  J15                  JUNCTION     0.13     0.20    15.20     0  12:17        0.19
  J16                  JUNCTION     0.04     0.10    30.10     0  00:36        0.10
  J17                  JUNCTION     0.05     0.12    20.12     0  11:43        0.12
  J18                  JUNCTION     0.04     0.08    29.08     0  00:41        0.08
  J19                  JUNCTION     0.12     0.15     8.15     0  13:13        0.15
  J2                   JUNCTION     0.05     0.06    25.06     0  14:06        0.06
  J3                   JUNCTION     0.10     0.13    18.13     0  12:55        0.13
  J4                   JUNCTION     0.09     0.14    33.14     0  00:53        0.14
  J5                   JUNCTION     0.05     0.09    32.09     0  00:52        0.09
  J6                   JUNCTION     0.06     0.09    25.09     0  12:43        0.09
  J7                   JUNCTION     0.06     0.18    39.18     0  12:35        0.18
  J8                   JUNCTION     0.08     0.20    36.20     0  12:35        0.20
  J9                   JUNCTION     0.08     0.15    29.15     0  13:35        0.15
  Out_to_WWTP          OUTFALL      0.12     0.15     6.15     0  13:14        0.15
  T1                   STORAGE      1.43     2.77    12.77     0  13:13        2.76
  T2                   STORAGE      1.85     2.77    23.77     0  18:55        2.77
  T3                   STORAGE      2.48     4.73    26.73     0  15:06        4.73
  T4                   STORAGE      1.22     1.63    28.63     0  15:06        1.63
  T5                   STORAGE      1.07     1.90    28.90     0  14:03        1.90
  T6                   STORAGE      1.85     5.00    36.00     0  17:06        5.00
  
  
  *******************
  Node Inflow Summary
  *******************
  
  -------------------------------------------------------------------------------------------------
                                  Maximum  Maximum                  Lateral       Total        Flow
                                  Lateral    Total  Time of Max      Inflow      Inflow     Balance
                                   Inflow   Inflow   Occurrence      Volume      Volume       Error
  Node                 Type           CMS      CMS  days hr:min    10^6 ltr    10^6 ltr     Percent
  -------------------------------------------------------------------------------------------------
  CSO10                JUNCTION     0.043    0.043     0  12:15       0.642       0.643       0.131
  CSO7                 JUNCTION     0.027    0.027     0  00:50       0.748       0.748       0.064
  CSO8                 JUNCTION     0.430    0.430     0  12:10         2.8        2.81      -0.015
  CSO9                 JUNCTION     0.078    0.078     0  12:30       0.823       0.825       0.044
  J1                   JUNCTION     0.082    0.082     0  12:15        1.49        1.49       0.042
  J10                  JUNCTION     0.411    0.785     0  12:02        2.16        4.97      -0.065
  J11                  JUNCTION     0.000    0.430     0  12:10           0        2.81      -0.008
  J12                  JUNCTION     0.000    0.832     0  12:04           0        8.67       9.328
  J13                  JUNCTION     0.173    0.173     0  00:40        2.06        2.06      -0.100
  J14                  JUNCTION     0.000    0.136     0  12:00           0        4.16       0.099
  J15                  JUNCTION     0.000    0.361     0  12:15           0        10.1       1.102
  J16                  JUNCTION     0.161    0.161     0  00:35        2.09        2.09       0.110
  J17                  JUNCTION     0.000    0.102     0  15:25           0       0.993       2.960
  J18                  JUNCTION     0.000    0.043     0  00:38           0       0.642       0.224
  J19                  JUNCTION     0.000    0.201     0  13:13           0        9.39       0.093
  J2                   JUNCTION     0.000    0.024     0  14:03           0        1.18       0.301
  J3                   JUNCTION     0.000    0.191     0  11:44           0        6.43       0.556
  J4                   JUNCTION     0.000    0.026     0  00:51           0       0.748       0.552
  J5                   JUNCTION     0.037    0.062     0  00:50       0.596        1.34       0.101
  J6                   JUNCTION     0.000    0.045     0  15:25           0         1.1       0.695
  J7                   JUNCTION     0.000    0.078     0  12:31           0       0.825       0.153
  J8                   JUNCTION     0.311    0.389     0  12:35        3.88        4.72      -0.033
  J9                   JUNCTION     0.000    0.164     0  14:05           0        3.29       0.085
  Out_to_WWTP          OUTFALL      0.000    0.201     0  13:14           0        9.38       0.000
  T1                   STORAGE      0.000    0.332     0  12:17           0        9.97       4.116
  T2                   STORAGE      0.000    0.171     0  00:41           0        2.06      33.478
  T3                   STORAGE      0.000    0.816     0  12:10           0        7.93      13.324
  T4                   STORAGE      0.000    0.062     0  00:52           0        1.34       7.412
  T5                   STORAGE      0.000    0.081     0  12:16           0        1.49      11.703
  T6                   STORAGE      0.000    0.387     0  12:36           0        4.72      20.780
  
  
  **********************
  Node Surcharge Summary
  **********************
  
  Surcharging occurs when water rises above the top of the highest conduit.
  ---------------------------------------------------------------------
                                               Max. Height   Min. Depth
                                   Hours       Above Crown    Below Rim
  Node                 Type      Surcharged         Meters       Meters
  ---------------------------------------------------------------------
  CSO8                 JUNCTION        0.31          1.229        0.318
  
  
  *********************
  Node Flooding Summary
  *********************
  
  Flooding refers to all water that overflows a node, whether it ponds or not.
  --------------------------------------------------------------------------
                                                             Total   Maximum
                                 Maximum   Time of Max       Flood    Ponded
                        Hours       Rate    Occurrence      Volume     Depth
  Node                 Flooded       CMS   days hr:min    10^6 ltr    Meters
  --------------------------------------------------------------------------
  T6                      1.82     0.005      0  17:06       0.021     0.000
  
  
  **********************
  Storage Volume Summary
  **********************
  
  --------------------------------------------------------------------------------------------------
                         Average     Avg  Evap Exfil       Maximum     Max    Time of Max    Maximum
                          Volume    Pcnt  Pcnt  Pcnt        Volume    Pcnt     Occurrence    Outflow
  Storage Unit           1000 m3    Full  Loss  Loss       1000 m3    Full    days hr:min        CMS
  --------------------------------------------------------------------------------------------------
  T1                       0.201      29     0     0         0.387      55       0  13:13      0.201
  T2                       0.370      37     0     0         0.554      55       0  18:55      0.102
  T3                       1.291      50     0     0         2.460      95       0  15:06      0.168
  T4                       0.122      24     0     0         0.163      33       0  15:06      0.045
  T5                       0.107      21     0     0         0.190      38       0  14:03      0.024
  T6                       0.222      37     0     0         0.600     100       0  17:06      0.164
  
  
  ***********************
  Outfall Loading Summary
  ***********************
  
  -----------------------------------------------------------
                         Flow       Avg       Max       Total
                         Freq      Flow      Flow      Volume
  Outfall Node           Pcnt       CMS       CMS    10^6 ltr
  -----------------------------------------------------------
  Out_to_WWTP           99.18     0.140     0.201       9.385
  -----------------------------------------------------------
  System                99.18     0.140     0.201       9.385
  
  
  ********************
  Link Flow Summary
  ********************
  
  -----------------------------------------------------------------------------
                                 Maximum  Time of Max   Maximum    Max/    Max/
                                  |Flow|   Occurrence   |Veloc|    Full    Full
  Link                 Type          CMS  days hr:min     m/sec    Flow   Depth
  -----------------------------------------------------------------------------
  C1                   CONDUIT     0.024     0  14:06      0.90    0.01    0.10
  C10                  CONDUIT     0.387     0  12:36      2.35    0.04    0.57
  C11                  CONDUIT     0.179     0  12:55      1.76    0.01    0.08
  C12                  CONDUIT     0.155     0  13:35      1.11    0.01    0.21
  C13                  CONDUIT     0.816     0  12:10      1.53    0.05    0.68
  C14                  CONDUIT     0.201     0  13:14      1.90    0.01    0.07
  C15                  CONDUIT     0.430     0  12:10      3.16    1.37    0.81
  C16                  CONDUIT     0.425     0  12:10      1.68    0.04    0.14
  C17                  CONDUIT     0.776     0  12:03      3.03    0.04    0.20
  C18                  CONDUIT     0.171     0  00:41      2.43    0.01    0.52
  C19                  CONDUIT     0.086     0  11:43      1.41    0.03    0.14
  C2                   CONDUIT     0.042     0  12:43      1.53    0.05    0.18
  C20                  CONDUIT     0.159     0  00:37      2.58    0.00    0.07
  C21                  CONDUIT     0.043     0  00:38      1.31    0.25    0.27
  C22                  CONDUIT     0.042     0  00:41      0.96    0.02    0.17
  C23                  CONDUIT     0.332     0  12:17      2.05    0.04    0.57
  C3                   CONDUIT     0.136     0  12:00      2.06    0.05    0.14
  C4                   CONDUIT     0.081     0  12:16      2.03    0.02    0.55
  C5                   CONDUIT     0.026     0  00:51      1.24    0.45    0.51
  C6                   CONDUIT     0.026     0  00:53      1.04    0.41    0.38
  C7                   CONDUIT     0.062     0  00:52      1.82    0.02    0.53
  C8                   CONDUIT     0.078     0  12:31      1.74    0.98    0.72
  C9                   CONDUIT     0.077     0  12:35      1.13    0.26    0.38
  V1                   ORIFICE     0.201     0  13:13                      1.00
  V2                   ORIFICE     0.102     0  15:25                      1.00
  V3                   ORIFICE     0.136     0  12:00                      1.00
  V4                   ORIFICE     0.045     0  15:25                      1.00
  V5                   ORIFICE     0.024     0  14:03                      1.00
  V6                   ORIFICE     0.164     0  14:05                      1.00
  
  
  ***************************
  Flow Classification Summary
  ***************************
  
  -------------------------------------------------------------------------------------
                      Adjusted    ---------- Fraction of Time in Flow Class ---------- 
                       /Actual         Up    Down  Sub   Sup   Up    Down  Norm  Inlet 
  Conduit               Length    Dry  Dry   Dry   Crit  Crit  Crit  Crit  Ltd   Ctrl  
  -------------------------------------------------------------------------------------
  C1                      1.00   0.00  0.00  0.00  0.42  0.58  0.00  0.00  0.96  0.00
  C10                     1.00   0.00  0.00  0.00  0.80  0.20  0.00  0.00  0.97  0.00
  C11                     1.00   0.00  0.00  0.00  0.11  0.89  0.00  0.00  1.00  0.00
  C12                     1.00   0.00  0.00  0.00  0.63  0.37  0.00  0.00  0.95  0.00
  C13                     1.00   0.00  0.00  0.00  0.91  0.09  0.00  0.00  0.58  0.00
  C14                     1.00   0.01  0.00  0.00  0.01  0.99  0.00  0.00  0.69  0.00
  C15                     1.00   0.06  0.00  0.00  0.01  0.93  0.00  0.00  0.02  0.00
  C16                     1.00   0.00  0.06  0.00  0.44  0.50  0.00  0.00  0.25  0.00
  C17                     1.00   0.00  0.00  0.00  0.60  0.40  0.00  0.00  0.96  0.00
  C18                     1.00   0.00  0.00  0.00  0.97  0.03  0.00  0.00  0.98  0.00
  C19                     1.00   0.00  0.00  0.00  0.95  0.05  0.00  0.00  1.00  0.00
  C2                      1.00   0.00  0.00  0.00  0.32  0.68  0.00  0.00  0.95  0.00
  C20                     1.00   0.00  0.00  0.00  0.83  0.17  0.00  0.00  0.99  0.00
  C21                     1.00   0.00  0.00  0.00  0.00  1.00  0.00  0.00  0.00  0.00
  C22                     1.00   0.00  0.00  0.00  0.99  0.01  0.00  0.00  1.00  0.00
  C23                     1.00   0.00  0.00  0.00  0.96  0.03  0.00  0.00  0.97  0.00
  C3                      1.00   0.00  0.00  0.00  0.08  0.92  0.00  0.00  0.32  0.00
  C4                      1.00   0.00  0.00  0.00  0.97  0.03  0.00  0.00  0.98  0.00
  C5                      1.00   0.00  0.00  0.00  0.92  0.08  0.00  0.00  0.98  0.00
  C6                      1.00   0.00  0.00  0.00  0.02  0.98  0.00  0.00  0.00  0.00
  C7                      1.00   0.00  0.00  0.00  0.97  0.03  0.00  0.00  0.98  0.00
  C8                      1.00   0.00  0.00  0.00  0.17  0.83  0.00  0.00  0.00  0.00
  C9                      1.00   0.00  0.00  0.00  1.00  0.00  0.00  0.00  1.00  0.00
  
  
  *************************
  Conduit Surcharge Summary
  *************************
  
  ----------------------------------------------------------------------------
                                                           Hours        Hours 
                         --------- Hours Full --------   Above Full   Capacity
  Conduit                Both Ends  Upstream  Dnstream   Normal Flow   Limited
  ----------------------------------------------------------------------------
  C10                         0.01      0.01      6.49      0.01         0.01
  C13                         0.01      0.01      8.78      0.01         0.01
  C15                         0.01      0.31      0.01      0.34         0.01
  C18                         0.01      0.01      6.79      0.01         0.01
  C23                         0.01      0.01      6.48      0.01         0.01
  C4                          0.01      0.01      7.63      0.01         0.01
  C7                          0.01      0.01     16.77      0.01         0.01
  

  Analysis begun on:  Sun Jul 17 20:47:33 2022
  Analysis ended on:  Sun Jul 17 20:47:36 2022
  Total elapsed time: 00:00:03