
  EPA STORM WATER MANAGEMENT MODEL - VERSION 5.1 (Build 5.3.0.dev0)
  --------------------------------------------------------------

  
  *********************************************************
  NOTE: The summary statistics displayed in this report are
  based on results found at every computational time step,  
  not just on results from each reporting time step.
  *********************************************************
  
  ****************
  Analysis Options
  ****************
  Flow Units ............... CMS
  Process Models:
    Rainfall/Runoff ........ YES
    RDII ................... NO
    Snowmelt ............... NO
    Groundwater ............ NO
    Flow Routing ........... YES
    Ponding Allowed ........ NO
    Water Quality .......... NO
  Infiltration Method ...... HORTON
  Flow Routing Method ...... DYNWAVE
  Surcharge Method ......... EXTRAN
  Starting Date ............ 11/15/2009 21:15:00
  Ending Date .............. 11/16/2009 05:05:00
  Antecedent Dry Days ...... 0.0
  Report Time Step ......... 00:05:00
  Wet Time Step ............ 00:05:00
  Dry Time Step ............ 01:00:00
  Routing Time Step ........ 30.00 sec
  Variable Time Step ....... YES
  Maximum Trials ........... 8
  Number of Threads ........ 1
  Head Tolerance ........... 0.001500 m
  
  
  **************************        Volume         Depth
  Runoff Quantity Continuity     hectare-m            mm
  **************************     ---------       -------
  Total Precipitation ......         0.961         5.332
  Evaporation Loss .........         0.000         0.000
  Infiltration Loss ........         0.000         0.000
  Surface Runoff ...........         0.932         5.173
  Final Storage ............         0.030         0.166
  Continuity Error (%) .....        -0.135
  
  
  **************************        Volume        Volume
  Flow Routing Continuity        hectare-m      10^6 ltr
  **************************     ---------     ---------
  Dry Weather Inflow .......         0.077         0.774
  Wet Weather Inflow .......         0.932         9.320
  Groundwater Inflow .......         0.000         0.000
  RDII Inflow ..............         0.000         0.000
  External Inflow ..........         0.000         0.000
  External Outflow .........         0.523         5.229
  Flooding Loss ............         0.000         0.000
  Evaporation Loss .........         0.000         0.000
  Exfiltration Loss ........         0.000         0.000
  Initial Stored Volume ....         0.000         0.000
  Final Stored Volume ......         0.427         4.272
  Continuity Error (%) .....         5.870
  
  
  *************************
  Highest Continuity Errors
  *************************
  Node T6 (31.38%)
  Node T2 (26.67%)
  Node T4 (25.64%)
  Node T5 (18.43%)
  Node T3 (13.92%)
  
  
  ***************************
  Time-Step Critical Elements
  ***************************
  Link C15 (53.46%)
  
  
  ********************************
  Highest Flow Instability Indexes
  ********************************
  Link C19 (4)
  Link C23 (3)
  Link V2 (3)
  Link C20 (3)
  Link C2 (2)
  
  
  *************************
  Routing Time Step Summary
  *************************
  Minimum Time Step           :     0.23 sec
  Average Time Step           :    26.30 sec
  Maximum Time Step           :    30.00 sec
  Percent in Steady State     :     1.60
  Average Iterations per Step :     2.01
  Percent Not Converging      :     0.00
  
  
  ***************************
  Subcatchment Runoff Summary
  ***************************
  
  ------------------------------------------------------------------------------------------------------------------------------
                            Total      Total      Total      Total     Imperv       Perv      Total       Total     Peak  Runoff
                           Precip      Runon       Evap      Infil     Runoff     Runoff     Runoff      Runoff   Runoff   Coeff
  Subcatchment                 mm         mm         mm         mm         mm         mm         mm    10^6 ltr      CMS
  ------------------------------------------------------------------------------------------------------------------------------
  SC01                       4.89       0.00       0.00       0.00       4.79       0.00       4.79        1.58     0.19   0.979
  SC010                      4.89       0.00       0.00       0.00       4.75       0.00       4.75        0.56     0.06   0.971
  SC02                       5.59       0.00       0.00       0.00       5.47       0.00       5.47        1.24     0.13   0.978
  SC03                       6.21       0.00       0.00       0.00       6.13       0.00       6.13        1.10     0.11   0.988
  SC04                       5.59       0.00       0.00       0.00       5.33       0.00       5.33        0.37     0.03   0.954
  SC05                       4.89       0.00       0.00       0.00       4.78       0.00       4.78        0.75     0.09   0.977
  SC06                       4.76       0.00       0.00       0.00       4.47       0.00       4.47        1.46     0.16   0.939
  SC07                       5.59       0.00       0.00       0.00       5.33       0.00       5.33        0.25     0.02   0.954
  SC08                       6.21       0.00       0.00       0.00       6.06       0.00       6.06        1.70     0.15   0.976
  SC09                       4.76       0.00       0.00       0.00       4.59       0.00       4.59        0.32     0.04   0.963
  
  
  ******************
  Node Depth Summary
  ******************
  
  ---------------------------------------------------------------------------------
                                 Average  Maximum  Maximum  Time of Max    Reported
                                   Depth    Depth      HGL   Occurrence   Max Depth
  Node                 Type       Meters   Meters   Meters  days hr:min      Meters
  ---------------------------------------------------------------------------------
  CSO10                JUNCTION     0.11     0.20    30.20     0  02:45        0.19
  CSO7                 JUNCTION     0.08     0.11    34.11     0  02:45        0.11
  CSO8                 JUNCTION     0.13     0.23    32.23     0  02:35        0.23
  CSO9                 JUNCTION     0.09     0.17    40.17     0  02:36        0.17
  J1                   JUNCTION     0.06     0.10    34.10     0  02:46        0.10
  J10                  JUNCTION     0.10     0.16    29.16     0  02:36        0.16
  J11                  JUNCTION     0.10     0.17    31.17     0  02:36        0.17
  J12                  JUNCTION     0.12     0.19    26.19     0  02:39        0.19
  J13                  JUNCTION     0.06     0.10    29.10     0  02:45        0.10
  J14                  JUNCTION     0.12     0.16    20.16     0  03:57        0.16
  J15                  JUNCTION     0.15     0.21    15.21     0  03:40        0.21
  J16                  JUNCTION     0.06     0.11    30.11     0  02:46        0.11
  J17                  JUNCTION     0.06     0.11    20.11     0  04:40        0.11
  J18                  JUNCTION     0.05     0.09    29.09     0  02:48        0.09
  J19                  JUNCTION     0.14     0.17     8.17     0  04:46        0.17
  J2                   JUNCTION     0.05     0.06    25.06     0  04:26        0.06
  J3                   JUNCTION     0.10     0.14    18.14     0  03:45        0.14
  J4                   JUNCTION     0.09     0.13    33.13     0  02:48        0.13
  J5                   JUNCTION     0.06     0.08    32.08     0  02:47        0.08
  J6                   JUNCTION     0.04     0.09    25.09     0  03:45        0.09
  J7                   JUNCTION     0.07     0.13    39.13     0  02:40        0.13
  J8                   JUNCTION     0.09     0.15    36.15     0  02:40        0.15
  J9                   JUNCTION     0.07     0.13    29.13     0  04:05        0.13
  Out_to_WWTP          OUTFALL      0.13     0.17     6.17     0  04:46        0.17
  T1                   STORAGE      2.73     4.60    14.60     0  04:45        4.60
  T2                   STORAGE      1.21     1.79    22.79     0  07:50        1.79
  T3                   STORAGE      1.55     2.46    24.46     0  04:17        2.46
  T4                   STORAGE      1.44     2.35    29.35     0  05:40        2.35
  T5                   STORAGE      1.39     2.19    29.19     0  04:24        2.19
  T6                   STORAGE      2.01     3.53    34.53     0  07:30        3.53
  
  
  *******************
  Node Inflow Summary
  *******************
  
  -------------------------------------------------------------------------------------------------
                                  Maximum  Maximum                  Lateral       Total        Flow
                                  Lateral    Total  Time of Max      Inflow      Inflow     Balance
                                   Inflow   Inflow   Occurrence      Volume      Volume       Error
  Node                 Type           CMS      CMS  days hr:min    10^6 ltr    10^6 ltr     Percent
  -------------------------------------------------------------------------------------------------
  CSO10                JUNCTION     0.061    0.061     0  02:45       0.587       0.588       0.059
  CSO7                 JUNCTION     0.024    0.024     0  02:45       0.315       0.315       0.125
  CSO8                 JUNCTION     0.154    0.154     0  02:35         1.7         1.7      -0.005
  CSO9                 JUNCTION     0.042    0.042     0  02:35       0.358       0.358       0.113
  J1                   JUNCTION     0.089    0.089     0  02:45       0.864       0.865      -0.042
  J10                  JUNCTION     0.108    0.258     0  02:35        1.18        2.88       0.033
  J11                  JUNCTION     0.000    0.154     0  02:35           0         1.7       0.113
  J12                  JUNCTION     0.000    0.333     0  02:36           0        3.82       0.033
  J13                  JUNCTION     0.129    0.129     0  02:45        1.34        1.34      -0.269
  J14                  JUNCTION     0.000    0.133     0  04:18           0        2.37       0.214
  J15                  JUNCTION     0.000    0.402     0  03:20           0        6.09       1.112
  J16                  JUNCTION     0.192    0.192     0  02:45         1.7         1.7      -0.010
  J17                  JUNCTION     0.000    0.082     0  04:25           0        0.63       0.715
  J18                  JUNCTION     0.000    0.060     0  02:46           0       0.587       0.088
  J19                  JUNCTION     0.000    0.259     0  04:46           0        5.24       0.186
  J2                   JUNCTION     0.000    0.026     0  04:24           0       0.556       0.655
  J3                   JUNCTION     0.000    0.198     0  03:45           0        3.21       0.802
  J4                   JUNCTION     0.000    0.024     0  02:45           0       0.314       0.861
  J5                   JUNCTION     0.033    0.055     0  02:45       0.395       0.707       0.102
  J6                   JUNCTION     0.000    0.047     0  03:40           0       0.295       0.634
  J7                   JUNCTION     0.000    0.042     0  02:36           0       0.357       0.638
  J8                   JUNCTION     0.169    0.209     0  02:40        1.65        2.01       0.161
  J9                   JUNCTION     0.000    0.131     0  04:00           0       0.953       0.914
  Out_to_WWTP          OUTFALL      0.000    0.259     0  04:46           0        5.23       0.000
  T1                   STORAGE      0.000    0.386     0  03:40           0        6.03       7.845
  T2                   STORAGE      0.000    0.128     0  02:45           0        1.35      36.367
  T3                   STORAGE      0.000    0.329     0  02:39           0        3.82      16.176
  T4                   STORAGE      0.000    0.055     0  02:47           0       0.706      34.481
  T5                   STORAGE      0.000    0.088     0  02:46           0       0.865      22.600
  T6                   STORAGE      0.000    0.209     0  02:40           0        2.01      45.723
  
  
  **********************
  Node Surcharge Summary
  **********************
  
  No nodes were surcharged.
  
  
  *********************
  Node Flooding Summary
  *********************
  
  No nodes were flooded.
  
  
  **********************
  Storage Volume Summary
  **********************
  
  --------------------------------------------------------------------------------------------------
                         Average     Avg  Evap Exfil       Maximum     Max    Time of Max    Maximum
                          Volume    Pcnt  Pcnt  Pcnt        Volume    Pcnt     Occurrence    Outflow
  Storage Unit           1000 m3    Full  Loss  Loss       1000 m3    Full    days hr:min        CMS
  --------------------------------------------------------------------------------------------------
  T1                       0.382      55     0     0         0.644      92       0  04:45      0.259
  T2                       0.242      24     0     0         0.358      36       0  07:50      0.082
  T3                       0.807      31     0     0         1.278      49       0  04:17      0.133
  T4                       0.144      29     0     0         0.235      47       0  05:40      0.047
  T5                       0.139      28     0     0         0.219      44       0  04:24      0.026
  T6                       0.241      40     0     0         0.424      71       0  07:30      0.131
  
  
  ***********************
  Outfall Loading Summary
  ***********************
  
  -----------------------------------------------------------
                         Flow       Avg       Max       Total
                         Freq      Flow      Flow      Volume
  Outfall Node           Pcnt       CMS       CMS    10^6 ltr
  -----------------------------------------------------------
  Out_to_WWTP           98.79     0.186     0.259       5.229
  -----------------------------------------------------------
  System                98.79     0.186     0.259       5.229
  
  
  ********************
  Link Flow Summary
  ********************
  
  -----------------------------------------------------------------------------
                                 Maximum  Time of Max   Maximum    Max/    Max/
                                  |Flow|   Occurrence   |Veloc|    Full    Full
  Link                 Type          CMS  days hr:min     m/sec    Flow   Depth
  -----------------------------------------------------------------------------
  C1                   CONDUIT     0.026     0  04:26      0.84    0.01    0.10
  C10                  CONDUIT     0.209     0  02:40      1.68    0.02    0.55
  C11                  CONDUIT     0.190     0  03:46      1.68    0.01    0.09
  C12                  CONDUIT     0.116     0  04:05      1.12    0.01    0.08
  C13                  CONDUIT     0.329     0  02:39      1.97    0.02    0.54
  C14                  CONDUIT     0.259     0  04:46      2.05    0.01    0.08
  C15                  CONDUIT     0.154     0  02:35      2.22    0.49    0.44
  C16                  CONDUIT     0.152     0  02:36      1.24    0.01    0.08
  C17                  CONDUIT     0.256     0  02:36      1.95    0.01    0.09
  C18                  CONDUIT     0.128     0  02:45      3.03    0.00    0.46
  C19                  CONDUIT     0.080     0  04:40      1.09    0.03    0.16
  C2                   CONDUIT     0.046     0  03:45      1.21    0.05    0.19
  C20                  CONDUIT     0.190     0  02:46      2.88    0.01    0.08
  C21                  CONDUIT     0.060     0  02:46      1.79    0.35    0.32
  C22                  CONDUIT     0.059     0  02:48      0.96    0.03    0.18
  C23                  CONDUIT     0.386     0  03:40      1.51    0.04    0.57
  C3                   CONDUIT     0.133     0  04:18      1.96    0.05    0.15
  C4                   CONDUIT     0.088     0  02:46      5.48    0.02    0.55
  C5                   CONDUIT     0.024     0  02:45      1.24    0.41    0.48
  C6                   CONDUIT     0.023     0  02:48      1.01    0.36    0.36
  C7                   CONDUIT     0.055     0  02:47      1.22    0.01    0.54
  C8                   CONDUIT     0.042     0  02:36      2.12    0.52    0.46
  C9                   CONDUIT     0.041     0  02:40      0.91    0.14    0.28
  V1                   ORIFICE     0.259     0  04:46                      1.00
  V2                   ORIFICE     0.082     0  04:25                      1.00
  V3                   ORIFICE     0.133     0  04:18                      1.00
  V4                   ORIFICE     0.047     0  03:40                      1.00
  V5                   ORIFICE     0.026     0  04:24                      1.00
  V6                   ORIFICE     0.131     0  04:00                      1.00
  
  
  ***************************
  Flow Classification Summary
  ***************************
  
  -------------------------------------------------------------------------------------
                      Adjusted    ---------- Fraction of Time in Flow Class ---------- 
                       /Actual         Up    Down  Sub   Sup   Up    Down  Norm  Inlet 
  Conduit               Length    Dry  Dry   Dry   Crit  Crit  Crit  Crit  Ltd   Ctrl  
  -------------------------------------------------------------------------------------
  C1                      1.00   0.00  0.00  0.00  0.85  0.15  0.00  0.00  0.94  0.00
  C10                     1.00   0.00  0.00  0.00  0.96  0.04  0.00  0.00  0.97  0.00
  C11                     1.00   0.00  0.00  0.00  0.26  0.73  0.00  0.00  1.00  0.00
  C12                     1.00   0.00  0.00  0.00  0.80  0.20  0.00  0.00  1.00  0.00
  C13                     1.00   0.00  0.00  0.00  0.89  0.11  0.00  0.00  0.89  0.00
  C14                     1.00   0.01  0.00  0.00  0.01  0.98  0.00  0.00  0.49  0.00
  C15                     1.00   0.01  0.00  0.00  0.01  0.98  0.00  0.00  0.00  0.00
  C16                     1.00   0.00  0.02  0.00  0.24  0.74  0.00  0.00  0.22  0.00
  C17                     1.00   0.00  0.00  0.00  0.16  0.84  0.00  0.00  0.95  0.00
  C18                     1.00   0.00  0.00  0.00  0.90  0.10  0.00  0.00  0.96  0.00
  C19                     1.00   0.00  0.00  0.00  0.96  0.04  0.00  0.00  1.00  0.00
  C2                      1.00   0.00  0.00  0.00  0.84  0.15  0.00  0.00  0.95  0.00
  C20                     1.00   0.00  0.00  0.00  0.50  0.50  0.00  0.00  0.98  0.00
  C21                     1.00   0.00  0.00  0.00  0.00  1.00  0.00  0.00  0.00  0.00
  C22                     1.00   0.00  0.00  0.00  0.96  0.04  0.00  0.00  1.00  0.00
  C23                     1.00   0.00  0.00  0.00  0.89  0.11  0.00  0.00  0.93  0.00
  C3                      1.00   0.00  0.01  0.00  0.06  0.93  0.00  0.00  0.09  0.00
  C4                      1.00   0.00  0.00  0.00  0.92  0.08  0.00  0.00  0.97  0.00
  C5                      1.00   0.00  0.00  0.00  0.77  0.23  0.00  0.00  0.98  0.00
  C6                      1.00   0.00  0.00  0.00  0.01  0.99  0.00  0.00  0.00  0.00
  C7                      1.00   0.00  0.00  0.00  0.90  0.10  0.00  0.00  0.95  0.00
  C8                      1.00   0.00  0.00  0.00  0.01  0.99  0.00  0.00  0.00  0.00
  C9                      1.00   0.00  0.00  0.00  1.00  0.00  0.00  0.00  1.00  0.00
  
  
  *************************
  Conduit Surcharge Summary
  *************************
  
  ----------------------------------------------------------------------------
                                                           Hours        Hours 
                         --------- Hours Full --------   Above Full   Capacity
  Conduit                Both Ends  Upstream  Dnstream   Normal Flow   Limited
  ----------------------------------------------------------------------------
  C10                         0.01      0.01      4.86      0.01         0.01
  C13                         0.01      0.01      3.32      0.01         0.01
  C23                         0.01      0.01      6.05      0.01         0.01
  C4                          0.01      0.01      5.58      0.01         0.01
  C7                          0.01      0.01      5.17      0.01         0.01
  

  Analysis begun on:  Sun Jul 17 21:50:45 2022
  Analysis ended on:  Sun Jul 17 21:50:45 2022
  Total elapsed time: < 1 sec