
  EPA STORM WATER MANAGEMENT MODEL - VERSION 5.1 (Build 5.3.0.dev0)
  --------------------------------------------------------------

  
  *********************************************************
  NOTE: The summary statistics displayed in this report are
  based on results found at every computational time step,  
  not just on results from each reporting time step.
  *********************************************************
  
  ****************
  Analysis Options
  ****************
  Flow Units ............... CMS
  Process Models:
    Rainfall/Runoff ........ YES
    RDII ................... NO
    Snowmelt ............... NO
    Groundwater ............ NO
    Flow Routing ........... YES
    Ponding Allowed ........ NO
    Water Quality .......... NO
  Infiltration Method ...... HORTON
  Flow Routing Method ...... DYNWAVE
  Surcharge Method ......... EXTRAN
  Starting Date ............ 07/31/2007 00:50:00
  Ending Date .............. 08/01/2007 02:50:00
  Antecedent Dry Days ...... 0.0
  Report Time Step ......... 00:05:00
  Wet Time Step ............ 00:05:00
  Dry Time Step ............ 01:00:00
  Routing Time Step ........ 30.00 sec
  Variable Time Step ....... YES
  Maximum Trials ........... 8
  Number of Threads ........ 1
  Head Tolerance ........... 0.001500 m
  
  
  **************************        Volume         Depth
  Runoff Quantity Continuity     hectare-m            mm
  **************************     ---------       -------
  Total Precipitation ......         2.652        14.717
  Evaporation Loss .........         0.000         0.000
  Infiltration Loss ........         0.000         0.000
  Surface Runoff ...........         2.622        14.552
  Final Storage ............         0.031         0.174
  Continuity Error (%) .....        -0.059
  
  
  **************************        Volume        Volume
  Flow Routing Continuity        hectare-m      10^6 ltr
  **************************     ---------     ---------
  Dry Weather Inflow .......         0.771         7.714
  Wet Weather Inflow .......         2.622        26.218
  Groundwater Inflow .......         0.000         0.000
  RDII Inflow ..............         0.000         0.000
  External Inflow ..........         0.000         0.000
  External Outflow .........         1.791        17.908
  Flooding Loss ............         0.647         6.472
  Evaporation Loss .........         0.000         0.000
  Exfiltration Loss ........         0.000         0.000
  Initial Stored Volume ....         0.000         0.000
  Final Stored Volume ......         0.746         7.464
  Continuity Error (%) .....         6.154
  
  
  *************************
  Highest Continuity Errors
  *************************
  Node T2 (42.94%)
  Node T4 (22.32%)
  Node T5 (13.24%)
  Node T3 (6.79%)
  Node J9 (-3.84%)
  
  
  ***************************
  Time-Step Critical Elements
  ***************************
  Link C15 (56.28%)
  
  
  ********************************
  Highest Flow Instability Indexes
  ********************************
  Link C13 (5)
  Link C11 (3)
  Link C3 (3)
  Link V3 (3)
  Link C2 (3)
  
  
  *************************
  Routing Time Step Summary
  *************************
  Minimum Time Step           :     0.11 sec
  Average Time Step           :    27.06 sec
  Maximum Time Step           :    30.00 sec
  Percent in Steady State     :    24.87
  Average Iterations per Step :     2.03
  Percent Not Converging      :     0.00
  
  
  ***************************
  Subcatchment Runoff Summary
  ***************************
  
  ------------------------------------------------------------------------------------------------------------------------------
                            Total      Total      Total      Total     Imperv       Perv      Total       Total     Peak  Runoff
                           Precip      Runon       Evap      Infil     Runoff     Runoff     Runoff      Runoff   Runoff   Coeff
  Subcatchment                 mm         mm         mm         mm         mm         mm         mm    10^6 ltr      CMS
  ------------------------------------------------------------------------------------------------------------------------------
  SC01                      11.75       0.00       0.00       0.00      11.65       0.00      11.65        3.84     0.22   0.992
  SC010                     11.75       0.00       0.00       0.00      11.61       0.00      11.61        1.36     0.07   0.988
  SC02                      13.13       0.00       0.00       0.00      13.03       0.00      13.03        2.96     0.12   0.992
  SC03                      18.32       0.00       0.00       0.00      18.25       0.00      18.25        3.28     0.13   0.996
  SC04                      13.13       0.00       0.00       0.00      12.90       0.00      12.90        0.89     0.03   0.982
  SC05                      11.75       0.00       0.00       0.00      11.64       0.00      11.64        1.82     0.10   0.991
  SC06                      16.44       0.00       0.00       0.00      16.09       0.00      16.09        5.24     0.20   0.979
  SC07                      13.13       0.00       0.00       0.00      12.90       0.00      12.90        0.61     0.02   0.982
  SC08                      18.32       0.00       0.00       0.00      18.17       0.00      18.17        5.09     0.18   0.992
  SC09                      16.44       0.00       0.00       0.00      16.24       0.00      16.24        1.12     0.05   0.988
  
  
  ******************
  Node Depth Summary
  ******************
  
  ---------------------------------------------------------------------------------
                                 Average  Maximum  Maximum  Time of Max    Reported
                                   Depth    Depth      HGL   Occurrence   Max Depth
  Node                 Type       Meters   Meters   Meters  days hr:min      Meters
  ---------------------------------------------------------------------------------
  CSO10                JUNCTION     0.10     0.22    30.22     0  12:26        0.22
  CSO7                 JUNCTION     0.08     0.14    34.14     0  12:25        0.14
  CSO8                 JUNCTION     0.13     0.26    32.26     0  13:10        0.26
  CSO9                 JUNCTION     0.10     0.21    40.21     0  08:36        0.21
  J1                   JUNCTION     0.06     0.12    34.12     0  12:26        0.12
  J10                  JUNCTION     0.10     0.18    29.18     0  13:15        0.18
  J11                  JUNCTION     0.10     0.19    31.19     0  13:16        0.19
  J12                  JUNCTION     0.56     1.05    27.05     0  13:31        1.04
  J13                  JUNCTION     0.06     0.10    29.10     0  12:25        0.10
  J14                  JUNCTION     0.13     0.19    20.19     0  13:32        0.19
  J15                  JUNCTION     0.16     0.24    15.24     0  12:32        0.23
  J16                  JUNCTION     0.06     0.12    30.12     0  12:26        0.12
  J17                  JUNCTION     0.05     0.11    20.11     0  10:54        0.11
  J18                  JUNCTION     0.05     0.10    29.10     0  12:31        0.10
  J19                  JUNCTION     0.14     0.17     8.17     0  12:51        0.17
  J2                   JUNCTION     0.06     0.08    25.08     0  23:06        0.08
  J3                   JUNCTION     0.11     0.16    18.16     0  22:35        0.16
  J4                   JUNCTION     0.10     0.17    33.17     0  12:28        0.17
  J5                   JUNCTION     0.05     0.09    32.09     0  12:27        0.09
  J6                   JUNCTION     0.05     0.09    25.09     0  11:20        0.09
  J7                   JUNCTION     0.08     0.15    39.15     0  08:40        0.15
  J8                   JUNCTION     0.10     0.18    36.18     0  08:40        0.18
  J9                   JUNCTION     0.11     0.16    29.16     0  13:20        0.16
  Out_to_WWTP          OUTFALL      0.14     0.17     6.17     0  23:35        0.17
  T1                   STORAGE      3.24     5.00    15.00     0  12:50        5.00
  T2                   STORAGE      2.16     4.37    25.37     0  23:42        4.37
  T3                   STORAGE      3.39     5.00    27.00     0  13:30        5.00
  T4                   STORAGE      2.10     4.06    31.06     0  23:40        4.06
  T5                   STORAGE      2.54     4.33    31.33     0  23:04        4.33
  T6                   STORAGE      3.09     5.00    36.00     0  12:33        5.00
  
  
  *******************
  Node Inflow Summary
  *******************
  
  -------------------------------------------------------------------------------------------------
                                  Maximum  Maximum                  Lateral       Total        Flow
                                  Lateral    Total  Time of Max      Inflow      Inflow     Balance
                                   Inflow   Inflow   Occurrence      Volume      Volume       Error
  Node                 Type           CMS      CMS  days hr:min    10^6 ltr    10^6 ltr     Percent
  -------------------------------------------------------------------------------------------------
  CSO10                JUNCTION     0.076    0.076     0  12:30        1.64        1.66      -0.670
  CSO7                 JUNCTION     0.034    0.034     0  12:25        1.19        1.19      -0.853
  CSO8                 JUNCTION     0.189    0.189     0  13:10        5.53        5.55      -0.048
  CSO9                 JUNCTION     0.058    0.058     0  08:35        1.51         1.5      -0.248
  J1                   JUNCTION     0.124    0.124     0  12:25        2.93        2.96      -1.075
  J10                  JUNCTION     0.149    0.327     0  13:13        4.05        9.63      -0.456
  J11                  JUNCTION     0.000    0.189     0  13:11           0        5.56      -0.301
  J12                  JUNCTION     0.000    0.500     0  13:15           0        17.7       2.800
  J13                  JUNCTION     0.141    0.141     0  12:25        3.89         3.9      -1.798
  J14                  JUNCTION     0.000    0.190     0  13:30           0        9.18       1.601
  J15                  JUNCTION     0.000    0.493     0  12:30           0        20.9      -0.699
  J16                  JUNCTION     0.242    0.242     0  12:25        4.94           5      -0.979
  J17                  JUNCTION     0.000    0.069     0  10:45           0        1.43       0.266
  J18                  JUNCTION     0.000    0.076     0  12:27           0        1.67      -0.312
  J19                  JUNCTION     0.000    0.271     0  12:51           0        17.9       0.065
  J2                   JUNCTION     0.000    0.037     0  23:05           0        2.29       0.226
  J3                   JUNCTION     0.000    0.252     0  23:08           0        12.8       0.764
  J4                   JUNCTION     0.000    0.034     0  12:25           0         1.2      -0.961
  J5                   JUNCTION     0.037    0.070     0  12:25        1.14        2.36      -0.753
  J6                   JUNCTION     0.000    0.040     0  11:20           0        1.52       0.643
  J7                   JUNCTION     0.000    0.058     0  08:36           0        1.51      -0.309
  J8                   JUNCTION     0.233    0.290     0  08:40         7.1        8.59      -0.458
  J9                   JUNCTION     0.000    0.175     0  12:34           0        7.76      -3.699
  Out_to_WWTP          OUTFALL      0.000    0.271     0  12:52           0        17.9       0.000
  T1                   STORAGE      0.000    0.483     0  12:32           0          21       3.125
  T2                   STORAGE      0.000    0.140     0  12:25           0        3.97      75.252
  T3                   STORAGE      0.000    0.772     0  13:39           0        17.3       7.287
  T4                   STORAGE      0.000    0.070     0  12:27           0        2.38      28.737
  T5                   STORAGE      0.000    0.123     0  12:26           0        2.99      15.255
  T6                   STORAGE      0.000    0.289     0  08:41           0        8.63       3.670
  
  
  **********************
  Node Surcharge Summary
  **********************
  
  No nodes were surcharged.
  
  
  *********************
  Node Flooding Summary
  *********************
  
  Flooding refers to all water that overflows a node, whether it ponds or not.
  --------------------------------------------------------------------------
                                                             Total   Maximum
                                 Maximum   Time of Max       Flood    Ponded
                        Hours       Rate    Occurrence      Volume     Depth
  Node                 Flooded       CMS   days hr:min    10^6 ltr    Meters
  --------------------------------------------------------------------------
  T1                      8.10     0.144      0  22:37       1.896     0.000
  T3                      8.96     0.581      0  13:40       4.401     0.000
  T6                      0.91     0.110      0  13:20       0.175     0.000
  
  
  **********************
  Storage Volume Summary
  **********************
  
  --------------------------------------------------------------------------------------------------
                         Average     Avg  Evap Exfil       Maximum     Max    Time of Max    Maximum
                          Volume    Pcnt  Pcnt  Pcnt        Volume    Pcnt     Occurrence    Outflow
  Storage Unit           1000 m3    Full  Loss  Loss       1000 m3    Full    days hr:min        CMS
  --------------------------------------------------------------------------------------------------
  T1                       0.454      65     0     0         0.700     100       0  12:50      0.271
  T2                       0.432      43     0     0         0.874      87       0  23:42      0.069
  T3                       1.762      68     0     0         2.600     100       0  13:30      0.190
  T4                       0.210      42     0     0         0.406      81       0  23:40      0.040
  T5                       0.254      51     0     0         0.433      87       0  23:04      0.037
  T6                       0.371      62     0     0         0.600     100       0  12:33      0.175
  
  
  ***********************
  Outfall Loading Summary
  ***********************
  
  -----------------------------------------------------------
                         Flow       Avg       Max       Total
                         Freq      Flow      Flow      Volume
  Outfall Node           Pcnt       CMS       CMS    10^6 ltr
  -----------------------------------------------------------
  Out_to_WWTP           99.43     0.197     0.271      17.908
  -----------------------------------------------------------
  System                99.43     0.197     0.271      17.908
  
  
  ********************
  Link Flow Summary
  ********************
  
  -----------------------------------------------------------------------------
                                 Maximum  Time of Max   Maximum    Max/    Max/
                                  |Flow|   Occurrence   |Veloc|    Full    Full
  Link                 Type          CMS  days hr:min     m/sec    Flow   Depth
  -----------------------------------------------------------------------------
  C1                   CONDUIT     0.036     0  23:07      0.99    0.01    0.12
  C10                  CONDUIT     0.289     0  08:41      2.35    0.03    0.56
  C11                  CONDUIT     0.251     0  22:35      2.04    0.01    0.09
  C12                  CONDUIT     0.175     0  13:20      1.38    0.01    0.30
  C13                  CONDUIT     0.772     0  13:39      1.15    0.05    0.76
  C14                  CONDUIT     0.271     0  12:52      2.08    0.02    0.09
  C15                  CONDUIT     0.189     0  13:11      2.38    0.60    0.50
  C16                  CONDUIT     0.188     0  13:16      1.31    0.02    0.09
  C17                  CONDUIT     0.325     0  13:15      2.03    0.02    0.30
  C18                  CONDUIT     0.140     0  12:25      1.00    0.01    0.53
  C19                  CONDUIT     0.068     0  10:54      1.07    0.02    0.15
  C2                   CONDUIT     0.039     0  11:20      1.34    0.04    0.19
  C20                  CONDUIT     0.241     0  12:26      1.79    0.01    0.09
  C21                  CONDUIT     0.076     0  12:27      1.51    0.43    0.37
  C22                  CONDUIT     0.076     0  12:31      0.99    0.03    0.21
  C23                  CONDUIT     0.483     0  12:32      0.92    0.05    0.58
  C3                   CONDUIT     0.193     0  13:38      2.27    0.07    0.17
  C4                   CONDUIT     0.123     0  12:26      1.11    0.03    0.56
  C5                   CONDUIT     0.034     0  12:25      1.24    0.58    0.60
  C6                   CONDUIT     0.033     0  12:28      1.14    0.53    0.43
  C7                   CONDUIT     0.070     0  12:27      0.90    0.02    0.55
  C8                   CONDUIT     0.058     0  08:36      1.74    0.74    0.57
  C9                   CONDUIT     0.058     0  08:41      1.03    0.20    0.33
  V1                   ORIFICE     0.271     0  12:51                      1.00
  V2                   ORIFICE     0.069     0  10:45                      1.00
  V3                   ORIFICE     0.190     0  13:30                      1.00
  V4                   ORIFICE     0.040     0  11:20                      1.00
  V5                   ORIFICE     0.037     0  23:05                      1.00
  V6                   ORIFICE     0.175     0  12:34                      1.00
  
  
  ***************************
  Flow Classification Summary
  ***************************
  
  -------------------------------------------------------------------------------------
                      Adjusted    ---------- Fraction of Time in Flow Class ---------- 
                       /Actual         Up    Down  Sub   Sup   Up    Down  Norm  Inlet 
  Conduit               Length    Dry  Dry   Dry   Crit  Crit  Crit  Crit  Ltd   Ctrl  
  -------------------------------------------------------------------------------------
  C1                      1.00   0.00  0.00  0.00  0.69  0.31  0.00  0.00  0.96  0.00
  C10                     1.00   0.00  0.00  0.00  0.96  0.04  0.00  0.00  0.98  0.00
  C11                     1.00   0.00  0.00  0.00  0.06  0.94  0.00  0.00  1.00  0.00
  C12                     1.00   0.00  0.00  0.00  0.88  0.12  0.00  0.00  0.96  0.00
  C13                     1.00   0.00  0.00  0.00  0.93  0.07  0.00  0.00  0.40  0.00
  C14                     1.00   0.00  0.00  0.00  0.00  0.99  0.00  0.00  0.32  0.00
  C15                     1.00   0.02  0.00  0.00  0.00  0.98  0.00  0.00  0.00  0.00
  C16                     1.00   0.00  0.02  0.00  0.16  0.82  0.00  0.00  0.12  0.00
  C17                     1.00   0.00  0.00  0.00  0.60  0.40  0.00  0.00  0.99  0.00
  C18                     1.00   0.00  0.00  0.00  0.84  0.16  0.00  0.00  0.98  0.00
  C19                     1.00   0.00  0.00  0.00  0.99  0.01  0.00  0.00  1.00  0.00
  C2                      1.00   0.00  0.00  0.00  0.73  0.27  0.00  0.00  1.00  0.00
  C20                     1.00   0.00  0.00  0.00  0.73  0.27  0.00  0.00  0.99  0.00
  C21                     1.00   0.00  0.00  0.00  0.00  1.00  0.00  0.00  0.00  0.00
  C22                     1.00   0.00  0.00  0.00  1.00  0.00  0.00  0.00  1.00  0.00
  C23                     1.00   0.00  0.00  0.00  0.89  0.11  0.00  0.00  0.96  0.00
  C3                      1.00   0.00  0.00  0.00  0.03  0.97  0.00  0.00  0.25  0.00
  C4                      1.00   0.00  0.00  0.00  0.88  0.12  0.00  0.00  0.98  0.00
  C5                      1.00   0.00  0.00  0.00  0.90  0.10  0.00  0.00  0.99  0.00
  C6                      1.00   0.00  0.00  0.00  0.01  0.99  0.00  0.00  0.00  0.00
  C7                      1.00   0.00  0.00  0.00  0.84  0.16  0.00  0.00  0.97  0.00
  C8                      1.00   0.00  0.00  0.00  0.04  0.96  0.00  0.00  0.00  0.00
  C9                      1.00   0.00  0.00  0.00  1.00  0.00  0.00  0.00  1.00  0.00
  
  
  *************************
  Conduit Surcharge Summary
  *************************
  
  ----------------------------------------------------------------------------
                                                           Hours        Hours 
                         --------- Hours Full --------   Above Full   Capacity
  Conduit                Both Ends  Upstream  Dnstream   Normal Flow   Limited
  ----------------------------------------------------------------------------
  C10                         0.01      0.01     17.35      0.01         0.01
  C13                         0.01      0.01     17.03      0.01         0.01
  C18                         0.01      0.01     13.70      0.01         0.01
  C23                         0.01      0.01     17.73      0.01         0.01
  C4                          0.01      0.01     17.47      0.01         0.01
  C7                          0.01      0.01     15.90      0.01         0.01
  

  Analysis begun on:  Sun Jul 17 20:05:06 2022
  Analysis ended on:  Sun Jul 17 20:05:08 2022
  Total elapsed time: 00:00:02