
  EPA STORM WATER MANAGEMENT MODEL - VERSION 5.1 (Build 5.3.0.dev0)
  --------------------------------------------------------------

  
  *********************************************************
  NOTE: The summary statistics displayed in this report are
  based on results found at every computational time step,  
  not just on results from each reporting time step.
  *********************************************************
  
  ****************
  Analysis Options
  ****************
  Flow Units ............... CMS
  Process Models:
    Rainfall/Runoff ........ YES
    RDII ................... NO
    Snowmelt ............... NO
    Groundwater ............ NO
    Flow Routing ........... YES
    Ponding Allowed ........ NO
    Water Quality .......... NO
  Infiltration Method ...... HORTON
  Flow Routing Method ...... DYNWAVE
  Surcharge Method ......... EXTRAN
  Starting Date ............ 01/08/2008 12:35:00
  Ending Date .............. 01/08/2008 22:30:00
  Antecedent Dry Days ...... 0.0
  Report Time Step ......... 00:05:00
  Wet Time Step ............ 00:05:00
  Dry Time Step ............ 01:00:00
  Routing Time Step ........ 30.00 sec
  Variable Time Step ....... YES
  Maximum Trials ........... 8
  Number of Threads ........ 1
  Head Tolerance ........... 0.001500 m
  
  
  **************************        Volume         Depth
  Runoff Quantity Continuity     hectare-m            mm
  **************************     ---------       -------
  Total Precipitation ......         1.182         6.561
  Evaporation Loss .........         0.000         0.000
  Infiltration Loss ........         0.000         0.000
  Surface Runoff ...........         1.150         6.382
  Final Storage ............         0.033         0.184
  Continuity Error (%) .....        -0.086
  
  
  **************************        Volume        Volume
  Flow Routing Continuity        hectare-m      10^6 ltr
  **************************     ---------     ---------
  Dry Weather Inflow .......         0.365         3.654
  Wet Weather Inflow .......         1.150        11.502
  Groundwater Inflow .......         0.000         0.000
  RDII Inflow ..............         0.000         0.000
  External Inflow ..........         0.000         0.000
  External Outflow .........         0.559         5.587
  Flooding Loss ............         0.111         1.107
  Evaporation Loss .........         0.000         0.000
  Exfiltration Loss ........         0.000         0.000
  Initial Stored Volume ....         0.000         0.000
  Final Stored Volume ......         0.646         6.465
  Continuity Error (%) .....        13.180
  
  
  *************************
  Highest Continuity Errors
  *************************
  Node T2 (33.75%)
  Node T4 (22.58%)
  Node T5 (22.08%)
  Node T3 (20.31%)
  Node T6 (18.80%)
  
  
  ***************************
  Time-Step Critical Elements
  ***************************
  Link C15 (39.54%)
  
  
  ********************************
  Highest Flow Instability Indexes
  ********************************
  Link C13 (4)
  Link C15 (2)
  Link C20 (2)
  Link C18 (2)
  
  
  *************************
  Routing Time Step Summary
  *************************
  Minimum Time Step           :     0.01 sec
  Average Time Step           :    26.37 sec
  Maximum Time Step           :    30.00 sec
  Percent in Steady State     :     0.50
  Average Iterations per Step :     2.01
  Percent Not Converging      :     0.00
  
  
  ***************************
  Subcatchment Runoff Summary
  ***************************
  
  ------------------------------------------------------------------------------------------------------------------------------
                            Total      Total      Total      Total     Imperv       Perv      Total       Total     Peak  Runoff
                           Precip      Runon       Evap      Infil     Runoff     Runoff     Runoff      Runoff   Runoff   Coeff
  Subcatchment                 mm         mm         mm         mm         mm         mm         mm    10^6 ltr      CMS
  ------------------------------------------------------------------------------------------------------------------------------
  SC01                       5.20       0.00       0.00       0.00       5.08       0.00       5.08        1.68     0.24   0.978
  SC010                      5.20       0.00       0.00       0.00       5.04       0.00       5.04        0.59     0.08   0.970
  SC02                       6.62       0.00       0.00       0.00       6.50       0.00       6.50        1.48     0.20   0.982
  SC03                       7.53       0.00       0.00       0.00       7.46       0.00       7.46        1.34     0.23   0.990
  SC04                       6.62       0.00       0.00       0.00       6.34       0.00       6.34        0.44     0.05   0.958
  SC05                       5.20       0.00       0.00       0.00       5.07       0.00       5.07        0.79     0.11   0.976
  SC06                       7.46       0.00       0.00       0.00       7.10       0.00       7.10        2.31     0.30   0.952
  SC07                       6.62       0.00       0.00       0.00       6.34       0.00       6.34        0.30     0.04   0.958
  SC08                       7.53       0.00       0.00       0.00       7.39       0.00       7.39        2.07     0.32   0.981
  SC09                       7.46       0.00       0.00       0.00       7.26       0.00       7.26        0.50     0.07   0.973
  
  
  ******************
  Node Depth Summary
  ******************
  
  ---------------------------------------------------------------------------------
                                 Average  Maximum  Maximum  Time of Max    Reported
                                   Depth    Depth      HGL   Occurrence   Max Depth
  Node                 Type       Meters   Meters   Meters  days hr:min      Meters
  ---------------------------------------------------------------------------------
  CSO10                JUNCTION     0.11     0.24    30.24     0  05:50        0.24
  CSO7                 JUNCTION     0.09     0.16    34.16     0  05:55        0.16
  CSO8                 JUNCTION     0.14     0.40    32.40     0  05:40        0.40
  CSO9                 JUNCTION     0.11     0.26    40.26     0  05:59        0.26
  J1                   JUNCTION     0.07     0.12    34.12     0  05:50        0.12
  J10                  JUNCTION     0.10     0.23    29.23     0  05:39        0.23
  J11                  JUNCTION     0.10     0.24    31.24     0  05:41        0.24
  J12                  JUNCTION     0.15     0.26    26.26     0  05:43        0.26
  J13                  JUNCTION     0.06     0.13    29.13     0  05:52        0.13
  J14                  JUNCTION     0.11     0.14    20.14     0  07:39        0.14
  J15                  JUNCTION     0.15     0.23    15.23     0  05:56        0.23
  J16                  JUNCTION     0.06     0.13    30.13     0  05:50        0.13
  J17                  JUNCTION     0.05     0.07    20.07     0  07:53        0.07
  J18                  JUNCTION     0.05     0.11    29.11     0  05:53        0.11
  J19                  JUNCTION     0.13     0.17     8.17     0  06:43        0.17
  J2                   JUNCTION     0.06     0.07    25.07     0  07:30        0.07
  J3                   JUNCTION     0.10     0.13    18.13     0  07:40        0.13
  J4                   JUNCTION     0.11     0.20    33.20     0  05:58        0.20
  J5                   JUNCTION     0.06     0.11    32.11     0  05:57        0.11
  J6                   JUNCTION     0.05     0.07    25.07     0  08:00        0.07
  J7                   JUNCTION     0.09     0.17    39.17     0  06:01        0.17
  J8                   JUNCTION     0.11     0.21    36.21     0  06:00        0.20
  J9                   JUNCTION     0.09     0.11    29.11     0  07:29        0.11
  Out_to_WWTP          OUTFALL      0.13     0.17     6.17     0  07:46        0.17
  T1                   STORAGE      2.31     5.00    15.00     0  06:42        5.00
  T2                   STORAGE      1.68     3.58    24.58     0  07:51        3.58
  T3                   STORAGE      2.03     4.23    26.23     0  07:38        4.22
  T4                   STORAGE      1.77     3.83    30.83     0  07:58        3.83
  T5                   STORAGE      1.73     3.58    30.58     0  07:28        3.58
  T6                   STORAGE      2.61     5.00    36.00     0  06:15        5.00
  
  
  *******************
  Node Inflow Summary
  *******************
  
  -------------------------------------------------------------------------------------------------
                                  Maximum  Maximum                  Lateral       Total        Flow
                                  Lateral    Total  Time of Max      Inflow      Inflow     Balance
                                   Inflow   Inflow   Occurrence      Volume      Volume       Error
  Node                 Type           CMS      CMS  days hr:min    10^6 ltr    10^6 ltr     Percent
  -------------------------------------------------------------------------------------------------
  CSO10                JUNCTION     0.084    0.084     0  05:50       0.724       0.724       0.040
  CSO7                 JUNCTION     0.044    0.044     0  05:55       0.575       0.575       0.022
  CSO8                 JUNCTION     0.322    0.322     0  05:40        2.27        2.27       0.008
  CSO9                 JUNCTION     0.074    0.074     0  05:55       0.686       0.686       0.035
  J1                   JUNCTION     0.126    0.126     0  05:50        1.32        1.32      -0.078
  J10                  JUNCTION     0.241    0.553     0  05:38        1.71        3.97      -0.013
  J11                  JUNCTION     0.000    0.322     0  05:40           0        2.27       0.080
  J12                  JUNCTION     0.000    0.607     0  05:40           0        5.69       0.496
  J13                  JUNCTION     0.210    0.210     0  05:50        1.92        1.92      -0.202
  J14                  JUNCTION     0.000    0.114     0  07:38           0        2.39       0.291
  J15                  JUNCTION     0.000    0.484     0  05:53           0        7.14       1.078
  J16                  JUNCTION     0.253    0.253     0  05:50         2.2         2.2      -0.063
  J17                  JUNCTION     0.000    0.028     0  07:51           0        0.61       0.905
  J18                  JUNCTION     0.000    0.084     0  05:51           0       0.723       0.016
  J19                  JUNCTION     0.000    0.271     0  06:43           0         5.6       0.211
  J2                   JUNCTION     0.000    0.033     0  07:28           0       0.744       0.608
  J3                   JUNCTION     0.000    0.171     0  07:39           0        3.65       0.961
  J4                   JUNCTION     0.000    0.044     0  05:55           0       0.575       0.293
  J5                   JUNCTION     0.056    0.099     0  05:55       0.558        1.13       0.020
  J6                   JUNCTION     0.000    0.025     0  07:58           0       0.534       0.671
  J7                   JUNCTION     0.000    0.074     0  05:58           0       0.685       0.241
  J8                   JUNCTION     0.318    0.392     0  06:00         3.2        3.88       0.036
  J9                   JUNCTION     0.000    0.075     0  06:15           0        1.74       0.990
  Out_to_WWTP          OUTFALL      0.000    0.271     0  06:44           0        5.59       0.000
  T1                   STORAGE      0.000    0.482     0  05:56           0        7.07      10.769
  T2                   STORAGE      0.000    0.210     0  05:52           0        1.92      50.954
  T3                   STORAGE      0.000    0.605     0  05:44           0        5.67      25.493
  T4                   STORAGE      0.000    0.098     0  05:57           0        1.13      29.164
  T5                   STORAGE      0.000    0.126     0  05:50           0        1.32      28.332
  T6                   STORAGE      0.000    0.390     0  06:00           0        3.88      23.148
  
  
  **********************
  Node Surcharge Summary
  **********************
  
  No nodes were surcharged.
  
  
  *********************
  Node Flooding Summary
  *********************
  
  Flooding refers to all water that overflows a node, whether it ponds or not.
  --------------------------------------------------------------------------
                                                             Total   Maximum
                                 Maximum   Time of Max       Flood    Ponded
                        Hours       Rate    Occurrence      Volume     Depth
  Node                 Flooded       CMS   days hr:min    10^6 ltr    Meters
  --------------------------------------------------------------------------
  T1                      0.83     0.125      0  06:42       0.210     0.000
  T6                      1.91     0.293      0  06:18       0.896     0.000
  
  
  **********************
  Storage Volume Summary
  **********************
  
  --------------------------------------------------------------------------------------------------
                         Average     Avg  Evap Exfil       Maximum     Max    Time of Max    Maximum
                          Volume    Pcnt  Pcnt  Pcnt        Volume    Pcnt     Occurrence    Outflow
  Storage Unit           1000 m3    Full  Loss  Loss       1000 m3    Full    days hr:min        CMS
  --------------------------------------------------------------------------------------------------
  T1                       0.324      46     0     0         0.700     100       0  06:42      0.271
  T2                       0.337      34     0     0         0.716      72       0  07:51      0.028
  T3                       1.058      41     0     0         2.197      85       0  07:38      0.114
  T4                       0.177      35     0     0         0.383      77       0  07:58      0.025
  T5                       0.173      35     0     0         0.358      72       0  07:28      0.033
  T6                       0.314      52     0     0         0.600     100       0  06:15      0.075
  
  
  ***********************
  Outfall Loading Summary
  ***********************
  
  -----------------------------------------------------------
                         Flow       Avg       Max       Total
                         Freq      Flow      Flow      Volume
  Outfall Node           Pcnt       CMS       CMS    10^6 ltr
  -----------------------------------------------------------
  Out_to_WWTP           99.33     0.161     0.271       5.587
  -----------------------------------------------------------
  System                99.33     0.161     0.271       5.587
  
  
  ********************
  Link Flow Summary
  ********************
  
  -----------------------------------------------------------------------------
                                 Maximum  Time of Max   Maximum    Max/    Max/
                                  |Flow|   Occurrence   |Veloc|    Full    Full
  Link                 Type          CMS  days hr:min     m/sec    Flow   Depth
  -----------------------------------------------------------------------------
  C1                   CONDUIT     0.033     0  07:30      0.98    0.01    0.10
  C10                  CONDUIT     0.390     0  06:00      1.87    0.04    0.57
  C11                  CONDUIT     0.171     0  07:41      1.67    0.01    0.09
  C12                  CONDUIT     0.075     0  07:30      1.12    0.01    0.09
  C13                  CONDUIT     0.605     0  05:44      1.54    0.04    0.56
  C14                  CONDUIT     0.271     0  06:44      2.08    0.02    0.09
  C15                  CONDUIT     0.322     0  05:40      2.64    1.02    0.71
  C16                  CONDUIT     0.321     0  05:42      1.55    0.03    0.12
  C17                  CONDUIT     0.552     0  05:40      2.57    0.03    0.12
  C18                  CONDUIT     0.210     0  05:52      3.12    0.01    0.53
  C19                  CONDUIT     0.028     0  07:53      0.56    0.01    0.15
  C2                   CONDUIT     0.025     0  08:00      0.80    0.03    0.17
  C20                  CONDUIT     0.253     0  05:50      3.15    0.01    0.09
  C21                  CONDUIT     0.084     0  05:51      1.54    0.48    0.39
  C22                  CONDUIT     0.084     0  05:53      1.08    0.04    0.21
  C23                  CONDUIT     0.482     0  05:56      1.38    0.05    0.58
  C3                   CONDUIT     0.114     0  07:39      1.74    0.04    0.14
  C4                   CONDUIT     0.126     0  05:50      3.04    0.03    0.56
  C5                   CONDUIT     0.044     0  05:55      1.38    0.74    0.71
  C6                   CONDUIT     0.043     0  05:58      1.20    0.69    0.51
  C7                   CONDUIT     0.098     0  05:57      1.62    0.02    0.55
  C8                   CONDUIT     0.074     0  05:58      1.30    0.93    0.68
  C9                   CONDUIT     0.074     0  06:01      1.09    0.25    0.38
  V1                   ORIFICE     0.271     0  06:43                      1.00
  V2                   ORIFICE     0.028     0  07:51                      0.24
  V3                   ORIFICE     0.114     0  07:38                      0.65
  V4                   ORIFICE     0.025     0  07:58                      0.35
  V5                   ORIFICE     0.033     0  07:28                      1.00
  V6                   ORIFICE     0.075     0  06:15                      0.43
  
  
  ***************************
  Flow Classification Summary
  ***************************
  
  -------------------------------------------------------------------------------------
                      Adjusted    ---------- Fraction of Time in Flow Class ---------- 
                       /Actual         Up    Down  Sub   Sup   Up    Down  Norm  Inlet 
  Conduit               Length    Dry  Dry   Dry   Crit  Crit  Crit  Crit  Ltd   Ctrl  
  -------------------------------------------------------------------------------------
  C1                      1.00   0.00  0.00  0.00  0.71  0.29  0.00  0.00  0.96  0.00
  C10                     1.00   0.00  0.00  0.00  0.98  0.02  0.00  0.00  0.98  0.00
  C11                     1.00   0.00  0.00  0.00  0.18  0.82  0.00  0.00  1.00  0.00
  C12                     1.00   0.00  0.00  0.00  0.95  0.05  0.00  0.00  0.99  0.00
  C13                     1.00   0.00  0.00  0.00  0.92  0.08  0.00  0.00  0.65  0.00
  C14                     1.00   0.01  0.00  0.00  0.01  0.99  0.00  0.00  0.55  0.00
  C15                     1.00   0.00  0.00  0.00  0.00  1.00  0.00  0.00  0.00  0.00
  C16                     1.00   0.00  0.00  0.00  0.44  0.56  0.00  0.00  0.46  0.00
  C17                     1.00   0.00  0.00  0.00  0.26  0.74  0.00  0.00  0.98  0.00
  C18                     1.00   0.00  0.00  0.00  0.97  0.03  0.00  0.00  0.98  0.00
  C19                     1.00   0.00  0.00  0.00  1.00  0.00  0.00  0.00  1.00  0.00
  C2                      1.00   0.00  0.00  0.00  0.77  0.23  0.00  0.00  0.98  0.00
  C20                     1.00   0.00  0.00  0.00  0.39  0.61  0.00  0.00  0.99  0.00
  C21                     1.00   0.00  0.00  0.00  0.00  1.00  0.00  0.00  0.00  0.00
  C22                     1.00   0.00  0.00  0.00  0.98  0.02  0.00  0.00  1.00  0.00
  C23                     1.00   0.00  0.00  0.00  0.93  0.06  0.00  0.00  0.96  0.00
  C3                      1.00   0.00  0.00  0.00  0.03  0.96  0.00  0.00  0.15  0.00
  C4                      1.00   0.00  0.00  0.00  0.98  0.02  0.00  0.00  0.99  0.00
  C5                      1.00   0.00  0.00  0.00  0.93  0.07  0.00  0.00  0.99  0.00
  C6                      1.00   0.00  0.00  0.00  0.01  0.99  0.00  0.00  0.00  0.00
  C7                      1.00   0.00  0.00  0.00  0.97  0.03  0.00  0.00  0.98  0.00
  C8                      1.00   0.00  0.00  0.00  0.12  0.88  0.00  0.00  0.00  0.00
  C9                      1.00   0.00  0.00  0.00  1.00  0.00  0.00  0.00  1.00  0.00
  
  
  *************************
  Conduit Surcharge Summary
  *************************
  
  ----------------------------------------------------------------------------
                                                           Hours        Hours 
                         --------- Hours Full --------   Above Full   Capacity
  Conduit                Both Ends  Upstream  Dnstream   Normal Flow   Limited
  ----------------------------------------------------------------------------
  C10                         0.01      0.01      4.92      0.01         0.01
  C13                         0.01      0.01      4.32      0.01         0.01
  C15                         0.01      0.01      0.01      0.29         0.01
  C18                         0.01      0.01      3.98      0.01         0.01
  C23                         0.01      0.01      4.60      0.01         0.01
  C4                          0.01      0.01      4.90      0.01         0.01
  C7                          0.01      0.01      4.83      0.01         0.01
  

  Analysis begun on:  Sun Jul 17 20:38:35 2022
  Analysis ended on:  Sun Jul 17 20:38:35 2022
  Total elapsed time: < 1 sec