
  EPA STORM WATER MANAGEMENT MODEL - VERSION 5.1 (Build 5.3.0.dev0)
  --------------------------------------------------------------

  
  *********************************************************
  NOTE: The summary statistics displayed in this report are
  based on results found at every computational time step,  
  not just on results from each reporting time step.
  *********************************************************
  
  ****************
  Analysis Options
  ****************
  Flow Units ............... CMS
  Process Models:
    Rainfall/Runoff ........ YES
    RDII ................... NO
    Snowmelt ............... NO
    Groundwater ............ NO
    Flow Routing ........... YES
    Ponding Allowed ........ NO
    Water Quality .......... NO
  Infiltration Method ...... HORTON
  Flow Routing Method ...... DYNWAVE
  Surcharge Method ......... EXTRAN
  Starting Date ............ 05/26/2008 03:10:00
  Ending Date .............. 05/26/2008 17:20:00
  Antecedent Dry Days ...... 0.0
  Report Time Step ......... 00:05:00
  Wet Time Step ............ 00:05:00
  Dry Time Step ............ 01:00:00
  Routing Time Step ........ 30.00 sec
  Variable Time Step ....... YES
  Maximum Trials ........... 8
  Number of Threads ........ 1
  Head Tolerance ........... 0.001500 m
  
  
  **************************        Volume         Depth
  Runoff Quantity Continuity     hectare-m            mm
  **************************     ---------       -------
  Total Precipitation ......         1.453         8.065
  Evaporation Loss .........         0.000         0.000
  Infiltration Loss ........         0.000         0.000
  Surface Runoff ...........         1.428         7.926
  Final Storage ............         0.028         0.157
  Continuity Error (%) .....        -0.214
  
  
  **************************        Volume        Volume
  Flow Routing Continuity        hectare-m      10^6 ltr
  **************************     ---------     ---------
  Dry Weather Inflow .......         0.582         5.818
  Wet Weather Inflow .......         1.427        14.274
  Groundwater Inflow .......         0.000         0.000
  RDII Inflow ..............         0.000         0.000
  External Inflow ..........         0.000         0.000
  External Outflow .........         1.101        11.015
  Flooding Loss ............         0.241         2.414
  Evaporation Loss .........         0.000         0.000
  Exfiltration Loss ........         0.000         0.000
  Initial Stored Volume ....         0.000         0.000
  Final Stored Volume ......         0.544         5.439
  Continuity Error (%) .....         6.091
  
  
  *************************
  Highest Continuity Errors
  *************************
  Node T2 (25.00%)
  Node T3 (17.69%)
  Node T4 (14.28%)
  Node T6 (13.44%)
  Node T5 (10.55%)
  
  
  ***************************
  Time-Step Critical Elements
  ***************************
  Link C15 (19.87%)
  Link C21 (15.91%)
  
  
  ********************************
  Highest Flow Instability Indexes
  ********************************
  Link C20 (2)
  Link C21 (2)
  Link C4 (2)
  Link C15 (1)
  Link C22 (1)
  
  
  *************************
  Routing Time Step Summary
  *************************
  Minimum Time Step           :     0.11 sec
  Average Time Step           :    27.61 sec
  Maximum Time Step           :    30.00 sec
  Percent in Steady State     :     5.90
  Average Iterations per Step :     2.13
  Percent Not Converging      :     0.12
  
  
  ***************************
  Subcatchment Runoff Summary
  ***************************
  
  ------------------------------------------------------------------------------------------------------------------------------
                            Total      Total      Total      Total     Imperv       Perv      Total       Total     Peak  Runoff
                           Precip      Runon       Evap      Infil     Runoff     Runoff     Runoff      Runoff   Runoff   Coeff
  Subcatchment                 mm         mm         mm         mm         mm         mm         mm    10^6 ltr      CMS
  ------------------------------------------------------------------------------------------------------------------------------
  SC01                      12.49       0.00       0.00       0.00      12.42       0.00      12.42        4.10     0.61   0.994
  SC010                     12.49       0.00       0.00       0.00      12.38       0.00      12.38        1.45     0.20   0.991
  SC02                       5.67       0.00       0.00       0.00       5.58       0.00       5.58        1.27     0.26   0.983
  SC03                       5.11       0.00       0.00       0.00       5.04       0.00       5.04        0.91     0.11   0.987
  SC04                       5.67       0.00       0.00       0.00       5.48       0.00       5.48        0.38     0.06   0.967
  SC05                      12.49       0.00       0.00       0.00      12.41       0.00      12.41        1.94     0.28   0.994
  SC06                       6.83       0.00       0.00       0.00       6.53       0.00       6.53        2.13     0.27   0.956
  SC07                       5.67       0.00       0.00       0.00       5.49       0.00       5.49        0.26     0.04   0.967
  SC08                       5.11       0.00       0.00       0.00       4.98       0.00       4.98        1.39     0.14   0.975
  SC09                       6.83       0.00       0.00       0.00       6.63       0.00       6.63        0.46     0.07   0.970
  
  
  ******************
  Node Depth Summary
  ******************
  
  ---------------------------------------------------------------------------------
                                 Average  Maximum  Maximum  Time of Max    Reported
                                   Depth    Depth      HGL   Occurrence   Max Depth
  Node                 Type       Meters   Meters   Meters  days hr:min      Meters
  ---------------------------------------------------------------------------------
  CSO10                JUNCTION     0.14     1.00    31.00     0  01:49        1.00
  CSO7                 JUNCTION     0.08     0.18    34.18     0  03:15        0.18
  CSO8                 JUNCTION     0.10     0.23    32.23     0  04:00        0.23
  CSO9                 JUNCTION     0.09     0.28    40.28     0  02:37        0.27
  J1                   JUNCTION     0.07     0.18    34.18     0  01:50        0.18
  J10                  JUNCTION     0.08     0.16    29.16     0  04:02        0.16
  J11                  JUNCTION     0.08     0.17    31.17     0  04:02        0.16
  J12                  JUNCTION     0.12     0.19    26.19     0  04:05        0.19
  J13                  JUNCTION     0.05     0.14    29.14     0  03:11        0.14
  J14                  JUNCTION     0.11     0.13    20.13     0  12:58        0.13
  J15                  JUNCTION     0.17     0.31    15.31     0  01:51        0.31
  J16                  JUNCTION     0.07     0.19    30.19     0  01:50        0.19
  J17                  JUNCTION     0.06     0.06    20.06     0  05:20        0.06
  J18                  JUNCTION     0.06     0.16    29.16     0  01:51        0.16
  J19                  JUNCTION     0.15     0.17     8.17     0  02:21        0.17
  J2                   JUNCTION     0.07     0.08    25.08     0  03:33        0.08
  J3                   JUNCTION     0.10     0.12    18.12     0  11:59        0.12
  J4                   JUNCTION     0.10     0.22    33.22     0  03:17        0.21
  J5                   JUNCTION     0.05     0.11    32.11     0  03:16        0.11
  J6                   JUNCTION     0.05     0.06    25.06     0  05:40        0.06
  J7                   JUNCTION     0.07     0.17    39.17     0  02:41        0.17
  J8                   JUNCTION     0.09     0.20    36.20     0  02:45        0.20
  J9                   JUNCTION     0.09     0.11    29.11     0  05:11        0.11
  Out_to_WWTP          OUTFALL      0.15     0.17     6.17     0  04:09        0.17
  T1                   STORAGE      3.51     5.00    15.00     0  02:20        5.00
  T2                   STORAGE      1.96     2.71    23.71     0  05:18        2.71
  T3                   STORAGE      1.93     3.09    25.09     0  12:44        3.09
  T4                   STORAGE      2.00     2.87    29.87     0  05:37        2.87
  T5                   STORAGE      3.76     5.00    32.00     0  02:52        5.00
  T6                   STORAGE      3.52     5.00    36.00     0  03:59        5.00
  
  
  *******************
  Node Inflow Summary
  *******************
  
  -------------------------------------------------------------------------------------------------
                                  Maximum  Maximum                  Lateral       Total        Flow
                                  Lateral    Total  Time of Max      Inflow      Inflow     Balance
                                   Inflow   Inflow   Occurrence      Volume      Volume       Error
  Node                 Type           CMS      CMS  days hr:min    10^6 ltr    10^6 ltr     Percent
  -------------------------------------------------------------------------------------------------
  CSO10                JUNCTION     0.205    0.205     0  01:50        1.66        1.66      -0.003
  CSO7                 JUNCTION     0.050    0.050     0  03:15       0.688       0.689       0.137
  CSO8                 JUNCTION     0.152    0.152     0  04:00        1.82        1.83      -0.344
  CSO9                 JUNCTION     0.078    0.078     0  02:35       0.746       0.746       0.137
  J1                   JUNCTION     0.294    0.294     0  01:50        2.76        2.76       0.002
  J10                  JUNCTION     0.124    0.264     0  04:00        1.47        3.31      -0.249
  J11                  JUNCTION     0.000    0.151     0  04:00           0        1.83      -0.294
  J12                  JUNCTION     0.000    0.333     0  04:02           0        6.31       0.064
  J13                  JUNCTION     0.272    0.272     0  03:10        1.96        1.96      -0.237
  J14                  JUNCTION     0.000    0.097     0  12:44           0        3.61       0.183
  J15                  JUNCTION     0.000    0.871     0  01:50           0        13.6       0.516
  J16                  JUNCTION     0.620    0.620     0  01:50        4.91        4.92      -0.057
  J17                  JUNCTION     0.000    0.024     0  05:18           0       0.992       0.572
  J18                  JUNCTION     0.000    0.202     0  01:50           0        1.66      -0.036
  J19                  JUNCTION     0.000    0.271     0  02:20           0          11       0.092
  J2                   JUNCTION     0.000    0.039     0  02:53           0        1.67       0.266
  J3                   JUNCTION     0.000    0.152     0  11:57           0         6.1       0.556
  J4                   JUNCTION     0.000    0.050     0  03:15           0       0.688       0.391
  J5                   JUNCTION     0.065    0.113     0  03:15       0.566        1.25       0.052
  J6                   JUNCTION     0.000    0.021     0  05:38           0       0.842       0.388
  J7                   JUNCTION     0.000    0.077     0  02:37           0       0.745       0.291
  J8                   JUNCTION     0.285    0.360     0  02:45        3.51        4.25       0.094
  J9                   JUNCTION     0.000    0.075     0  04:00           0           3       0.496
  Out_to_WWTP          OUTFALL      0.000    0.271     0  02:22           0          11       0.000
  T1                   STORAGE      0.000    0.853     0  01:52           0        13.6       3.268
  T2                   STORAGE      0.000    0.270     0  03:11           0        1.96      33.334
  T3                   STORAGE      0.000    0.323     0  04:06           0        6.31      21.487
  T4                   STORAGE      0.000    0.113     0  03:16           0        1.25      16.652
  T5                   STORAGE      0.000    0.291     0  01:50           0        2.76      11.795
  T6                   STORAGE      0.000    0.359     0  02:45           0        4.25      15.520
  
  
  **********************
  Node Surcharge Summary
  **********************
  
  Surcharging occurs when water rises above the top of the highest conduit.
  ---------------------------------------------------------------------
                                               Max. Height   Min. Depth
                                   Hours       Above Crown    Below Rim
  Node                 Type      Surcharged         Meters       Meters
  ---------------------------------------------------------------------
  CSO10                JUNCTION        0.43          0.560        0.000
  
  
  *********************
  Node Flooding Summary
  *********************
  
  Flooding refers to all water that overflows a node, whether it ponds or not.
  --------------------------------------------------------------------------
                                                             Total   Maximum
                                 Maximum   Time of Max       Flood    Ponded
                        Hours       Rate    Occurrence      Volume     Depth
  Node                 Flooded       CMS   days hr:min    10^6 ltr    Meters
  --------------------------------------------------------------------------
  CSO10                   0.02     0.002      0  01:50       0.000     0.000
  T1                      1.67     0.537      0  03:11       1.674     0.000
  T5                      1.29     0.221      0  03:06       0.476     0.000
  T6                      1.96     0.166      0  03:59       0.264     0.000
  
  
  **********************
  Storage Volume Summary
  **********************
  
  --------------------------------------------------------------------------------------------------
                         Average     Avg  Evap Exfil       Maximum     Max    Time of Max    Maximum
                          Volume    Pcnt  Pcnt  Pcnt        Volume    Pcnt     Occurrence    Outflow
  Storage Unit           1000 m3    Full  Loss  Loss       1000 m3    Full    days hr:min        CMS
  --------------------------------------------------------------------------------------------------
  T1                       0.492      70     0     0         0.700     100       0  02:20      0.271
  T2                       0.393      39     0     0         0.542      54       0  05:18      0.024
  T3                       1.002      39     0     0         1.605      62       0  12:44      0.097
  T4                       0.200      40     0     0         0.287      57       0  05:37      0.021
  T5                       0.376      75     0     0         0.500     100       0  02:52      0.039
  T6                       0.422      70     0     0         0.600     100       0  03:59      0.075
  
  
  ***********************
  Outfall Loading Summary
  ***********************
  
  -----------------------------------------------------------
                         Flow       Avg       Max       Total
                         Freq      Flow      Flow      Volume
  Outfall Node           Pcnt       CMS       CMS    10^6 ltr
  -----------------------------------------------------------
  Out_to_WWTP           99.08     0.220     0.271      11.015
  -----------------------------------------------------------
  System                99.08     0.220     0.271      11.015
  
  
  ********************
  Link Flow Summary
  ********************
  
  -----------------------------------------------------------------------------
                                 Maximum  Time of Max   Maximum    Max/    Max/
                                  |Flow|   Occurrence   |Veloc|    Full    Full
  Link                 Type          CMS  days hr:min     m/sec    Flow   Depth
  -----------------------------------------------------------------------------
  C1                   CONDUIT     0.039     0  03:33      1.26    0.01    0.10
  C10                  CONDUIT     0.359     0  02:45      2.18    0.04    0.57
  C11                  CONDUIT     0.152     0  11:59      1.58    0.01    0.10
  C12                  CONDUIT     0.075     0  05:12      1.07    0.01    0.08
  C13                  CONDUIT     0.323     0  04:06      1.38    0.02    0.55
  C14                  CONDUIT     0.271     0  02:22      2.08    0.02    0.09
  C15                  CONDUIT     0.151     0  04:00      2.24    0.48    0.44
  C16                  CONDUIT     0.146     0  04:02      1.21    0.01    0.08
  C17                  CONDUIT     0.258     0  04:02      1.98    0.01    0.09
  C18                  CONDUIT     0.270     0  03:11      1.40    0.01    0.53
  C19                  CONDUIT     0.024     0  05:21      0.53    0.01    0.18
  C2                   CONDUIT     0.021     0  05:40      0.80    0.02    0.16
  C20                  CONDUIT     0.616     0  01:50      3.07    0.02    0.13
  C21                  CONDUIT     0.202     0  01:50      1.82    1.16    0.69
  C22                  CONDUIT     0.201     0  01:51      1.62    0.09    0.30
  C23                  CONDUIT     0.853     0  01:52      1.78    0.09    0.60
  C3                   CONDUIT     0.097     0  12:45      1.65    0.04    0.13
  C4                   CONDUIT     0.291     0  01:50      6.63    0.07    0.59
  C5                   CONDUIT     0.050     0  03:15      1.50    0.85    0.77
  C6                   CONDUIT     0.049     0  03:18      1.23    0.78    0.55
  C7                   CONDUIT     0.113     0  03:16      0.93    0.03    0.56
  C8                   CONDUIT     0.077     0  02:37      1.39    0.98    0.71
  C9                   CONDUIT     0.076     0  02:41      1.15    0.26    0.37
  V1                   ORIFICE     0.271     0  02:20                      1.00
  V2                   ORIFICE     0.024     0  05:18                      0.24
  V3                   ORIFICE     0.097     0  12:44                      0.65
  V4                   ORIFICE     0.021     0  05:38                      0.35
  V5                   ORIFICE     0.039     0  02:53                      1.00
  V6                   ORIFICE     0.075     0  04:00                      0.43
  
  
  ***************************
  Flow Classification Summary
  ***************************
  
  -------------------------------------------------------------------------------------
                      Adjusted    ---------- Fraction of Time in Flow Class ---------- 
                       /Actual         Up    Down  Sub   Sup   Up    Down  Norm  Inlet 
  Conduit               Length    Dry  Dry   Dry   Crit  Crit  Crit  Crit  Ltd   Ctrl  
  -------------------------------------------------------------------------------------
  C1                      1.00   0.00  0.00  0.00  0.00  1.00  0.00  0.00  0.92  0.00
  C10                     1.00   0.00  0.00  0.00  0.93  0.07  0.00  0.00  0.97  0.00
  C11                     1.00   0.00  0.00  0.00  0.29  0.71  0.00  0.00  1.00  0.00
  C12                     1.00   0.00  0.00  0.00  0.47  0.53  0.00  0.00  1.00  0.00
  C13                     1.00   0.00  0.00  0.00  0.90  0.10  0.00  0.00  0.90  0.00
  C14                     1.00   0.00  0.00  0.00  0.01  0.99  0.00  0.00  0.35  0.00
  C15                     1.00   0.05  0.00  0.00  0.00  0.95  0.00  0.00  0.01  0.00
  C16                     1.00   0.00  0.05  0.00  0.53  0.42  0.00  0.00  0.42  0.00
  C17                     1.00   0.00  0.00  0.00  0.38  0.62  0.00  0.00  0.99  0.00
  C18                     1.00   0.00  0.00  0.00  0.89  0.11  0.00  0.00  0.97  0.00
  C19                     1.00   0.00  0.00  0.00  1.00  0.00  0.00  0.00  1.00  0.00
  C2                      1.00   0.00  0.00  0.00  0.81  0.18  0.00  0.00  1.00  0.00
  C20                     1.00   0.00  0.00  0.00  0.65  0.35  0.00  0.00  0.98  0.00
  C21                     1.00   0.00  0.00  0.00  0.01  0.99  0.00  0.00  0.00  0.00
  C22                     1.00   0.00  0.00  0.00  0.74  0.26  0.00  0.00  1.00  0.00
  C23                     1.00   0.00  0.00  0.00  0.96  0.04  0.00  0.00  0.97  0.00
  C3                      1.00   0.00  0.00  0.00  0.07  0.92  0.00  0.00  0.38  0.00
  C4                      1.00   0.00  0.00  0.00  0.97  0.03  0.00  0.00  0.98  0.00
  C5                      1.00   0.00  0.00  0.00  0.90  0.10  0.00  0.00  0.98  0.00
  C6                      1.00   0.00  0.00  0.00  0.01  0.99  0.00  0.00  0.00  0.00
  C7                      1.00   0.00  0.00  0.00  0.92  0.08  0.00  0.00  0.96  0.00
  C8                      1.00   0.00  0.00  0.00  0.05  0.95  0.00  0.00  0.00  0.00
  C9                      1.00   0.00  0.00  0.00  1.00  0.00  0.00  0.00  1.00  0.00
  
  
  *************************
  Conduit Surcharge Summary
  *************************
  
  ----------------------------------------------------------------------------
                                                           Hours        Hours 
                         --------- Hours Full --------   Above Full   Capacity
  Conduit                Both Ends  Upstream  Dnstream   Normal Flow   Limited
  ----------------------------------------------------------------------------
  C10                         0.01      0.01     11.38      0.01         0.01
  C13                         0.01      0.01      8.29      0.01         0.01
  C18                         0.01      0.01     10.43      0.01         0.01
  C21                         0.01      0.43      0.01      0.38         0.01
  C23                         0.01      0.01     12.50      0.01         0.01
  C4                          0.01      0.01     12.68      0.01         0.01
  C7                          0.01      0.01     10.89      0.01         0.01
  

  Analysis begun on:  Sun Jul 17 20:45:28 2022
  Analysis ended on:  Sun Jul 17 20:45:29 2022
  Total elapsed time: 00:00:01