
  EPA STORM WATER MANAGEMENT MODEL - VERSION 5.1 (Build 5.3.0.dev0)
  --------------------------------------------------------------

  
  *********************************************************
  NOTE: The summary statistics displayed in this report are
  based on results found at every computational time step,  
  not just on results from each reporting time step.
  *********************************************************
  
  ****************
  Analysis Options
  ****************
  Flow Units ............... CMS
  Process Models:
    Rainfall/Runoff ........ YES
    RDII ................... NO
    Snowmelt ............... NO
    Groundwater ............ NO
    Flow Routing ........... YES
    Ponding Allowed ........ NO
    Water Quality .......... NO
  Infiltration Method ...... HORTON
  Flow Routing Method ...... DYNWAVE
  Surcharge Method ......... EXTRAN
  Starting Date ............ 12/18/2009 15:00:00
  Ending Date .............. 12/19/2009 01:45:00
  Antecedent Dry Days ...... 0.0
  Report Time Step ......... 00:05:00
  Wet Time Step ............ 00:05:00
  Dry Time Step ............ 01:00:00
  Routing Time Step ........ 30.00 sec
  Variable Time Step ....... YES
  Maximum Trials ........... 8
  Number of Threads ........ 1
  Head Tolerance ........... 0.001500 m
  
  
  **************************        Volume         Depth
  Runoff Quantity Continuity     hectare-m            mm
  **************************     ---------       -------
  Total Precipitation ......         1.512         8.389
  Evaporation Loss .........         0.000         0.000
  Infiltration Loss ........         0.000         0.000
  Surface Runoff ...........         1.481         8.221
  Final Storage ............         0.031         0.172
  Continuity Error (%) .....        -0.050
  
  
  **************************        Volume        Volume
  Flow Routing Continuity        hectare-m      10^6 ltr
  **************************     ---------     ---------
  Dry Weather Inflow .......         0.257         2.570
  Wet Weather Inflow .......         1.481        14.810
  Groundwater Inflow .......         0.000         0.000
  RDII Inflow ..............         0.000         0.000
  External Inflow ..........         0.000         0.000
  External Outflow .........         0.813         8.134
  Flooding Loss ............         0.086         0.859
  Evaporation Loss .........         0.000         0.000
  Exfiltration Loss ........         0.000         0.000
  Initial Stored Volume ....         0.000         0.000
  Final Stored Volume ......         0.642         6.421
  Continuity Error (%) .....        11.314
  
  
  *************************
  Highest Continuity Errors
  *************************
  Node T2 (37.43%)
  Node T6 (21.29%)
  Node T3 (21.21%)
  Node T4 (21.01%)
  Node T5 (18.22%)
  
  
  ***************************
  Time-Step Critical Elements
  ***************************
  Link C15 (38.11%)
  
  
  ********************************
  Highest Flow Instability Indexes
  ********************************
  Link C13 (5)
  Link C12 (4)
  Link C11 (3)
  Link C23 (3)
  Link C15 (3)
  
  
  *************************
  Routing Time Step Summary
  *************************
  Minimum Time Step           :     0.10 sec
  Average Time Step           :    27.59 sec
  Maximum Time Step           :    30.00 sec
  Percent in Steady State     :     5.89
  Average Iterations per Step :     2.03
  Percent Not Converging      :     0.00
  
  
  ***************************
  Subcatchment Runoff Summary
  ***************************
  
  ------------------------------------------------------------------------------------------------------------------------------
                            Total      Total      Total      Total     Imperv       Perv      Total       Total     Peak  Runoff
                           Precip      Runon       Evap      Infil     Runoff     Runoff     Runoff      Runoff   Runoff   Coeff
  Subcatchment                 mm         mm         mm         mm         mm         mm         mm    10^6 ltr      CMS
  ------------------------------------------------------------------------------------------------------------------------------
  SC01                       8.39       0.00       0.00       0.00       8.29       0.00       8.29        2.73     0.19   0.988
  SC010                      8.39       0.00       0.00       0.00       8.25       0.00       8.25        0.97     0.06   0.984
  SC02                      10.95       0.00       0.00       0.00      10.84       0.00      10.84        2.47     0.15   0.990
  SC03                       6.65       0.00       0.00       0.00       6.57       0.00       6.57        1.18     0.09   0.987
  SC04                      10.95       0.00       0.00       0.00      10.71       0.00      10.71        0.74     0.04   0.978
  SC05                       8.39       0.00       0.00       0.00       8.28       0.00       8.28        1.29     0.09   0.987
  SC06                       8.18       0.00       0.00       0.00       7.85       0.00       7.85        2.55     0.15   0.959
  SC07                      10.95       0.00       0.00       0.00      10.71       0.00      10.71        0.51     0.03   0.978
  SC08                       6.65       0.00       0.00       0.00       6.50       0.00       6.50        1.82     0.12   0.977
  SC09                       8.18       0.00       0.00       0.00       7.98       0.00       7.98        0.55     0.03   0.975
  
  
  ******************
  Node Depth Summary
  ******************
  
  ---------------------------------------------------------------------------------
                                 Average  Maximum  Maximum  Time of Max    Reported
                                   Depth    Depth      HGL   Occurrence   Max Depth
  Node                 Type       Meters   Meters   Meters  days hr:min      Meters
  ---------------------------------------------------------------------------------
  CSO10                JUNCTION     0.12     0.21    30.21     0  02:21        0.21
  CSO7                 JUNCTION     0.10     0.14    34.14     0  05:00        0.14
  CSO8                 JUNCTION     0.12     0.22    32.22     0  02:25        0.21
  CSO9                 JUNCTION     0.10     0.16    40.16     0  02:35        0.16
  J1                   JUNCTION     0.07     0.11    34.11     0  01:56        0.11
  J10                  JUNCTION     0.09     0.15    29.15     0  02:27        0.15
  J11                  JUNCTION     0.10     0.16    31.16     0  02:27        0.16
  J12                  JUNCTION     0.13     0.19    26.19     0  02:51        0.19
  J13                  JUNCTION     0.07     0.11    29.11     0  05:02        0.11
  J14                  JUNCTION     0.11     0.17    20.17     0  06:18        0.17
  J15                  JUNCTION     0.17     0.23    15.23     0  06:12        0.23
  J16                  JUNCTION     0.07     0.11    30.11     0  01:56        0.11
  J17                  JUNCTION     0.06     0.15    20.15     0  06:08        0.15
  J18                  JUNCTION     0.06     0.09    29.09     0  02:25        0.09
  J19                  JUNCTION     0.15     0.17     8.17     0  04:25        0.17
  J2                   JUNCTION     0.06     0.07    25.07     0  07:19        0.07
  J3                   JUNCTION     0.10     0.14    18.14     0  05:55        0.14
  J4                   JUNCTION     0.12     0.17    33.17     0  05:07        0.17
  J5                   JUNCTION     0.07     0.10    32.10     0  05:06        0.10
  J6                   JUNCTION     0.06     0.12    25.12     0  07:35        0.12
  J7                   JUNCTION     0.08     0.12    39.12     0  02:37        0.12
  J8                   JUNCTION     0.10     0.15    36.15     0  03:05        0.15
  J9                   JUNCTION     0.10     0.16    29.16     0  07:28        0.16
  Out_to_WWTP          OUTFALL      0.15     0.17     6.17     0  07:14        0.17
  T1                   STORAGE      3.45     5.00    15.00     0  04:24        5.00
  T2                   STORAGE      2.94     4.96    25.96     0  08:40        4.96
  T3                   STORAGE      2.40     4.12    26.12     0  08:56        4.12
  T4                   STORAGE      3.03     5.00    32.00     0  06:15        5.00
  T5                   STORAGE      2.81     4.16    31.16     0  07:18        4.16
  T6                   STORAGE      2.99     4.39    35.39     0  07:20        4.39
  
  
  *******************
  Node Inflow Summary
  *******************
  
  -------------------------------------------------------------------------------------------------
                                  Maximum  Maximum                  Lateral       Total        Flow
                                  Lateral    Total  Time of Max      Inflow      Inflow     Balance
                                   Inflow   Inflow   Occurrence      Volume      Volume       Error
  Node                 Type           CMS      CMS  days hr:min    10^6 ltr    10^6 ltr     Percent
  -------------------------------------------------------------------------------------------------
  CSO10                JUNCTION     0.066    0.066     0  02:20        1.06        1.06      -0.213
  CSO7                 JUNCTION     0.036    0.036     0  05:00       0.703       0.706      -0.139
  CSO8                 JUNCTION     0.135    0.135     0  02:25        1.93        1.93       0.000
  CSO9                 JUNCTION     0.039    0.039     0  02:35       0.682       0.683      -0.110
  J1                   JUNCTION     0.101    0.101     0  01:55        1.67        1.67      -0.578
  J10                  JUNCTION     0.098    0.228     0  02:25        1.44        3.37      -0.274
  J11                  JUNCTION     0.000    0.135     0  02:25           0        1.93      -0.394
  J12                  JUNCTION     0.000    0.320     0  02:48           0        6.04      -0.272
  J13                  JUNCTION     0.164    0.164     0  05:00        2.78        2.79      -0.648
  J14                  JUNCTION     0.000    0.150     0  06:20           0         2.8       0.242
  J15                  JUNCTION     0.000    0.499     0  06:10           0        9.57      -1.060
  J16                  JUNCTION     0.201    0.201     0  01:55        3.11         3.1      -0.525
  J17                  JUNCTION     0.000    0.134     0  06:01           0       0.795      -4.169
  J18                  JUNCTION     0.000    0.066     0  02:21           0        1.06      -0.881
  J19                  JUNCTION     0.000    0.271     0  04:24           0        8.14       0.119
  J2                   JUNCTION     0.000    0.036     0  07:18           0        1.09       0.423
  J3                   JUNCTION     0.000    0.216     0  06:18           0        4.56       0.423
  J4                   JUNCTION     0.000    0.036     0  05:00           0       0.707      -0.304
  J5                   JUNCTION     0.045    0.080     0  05:05       0.824        1.54      -0.296
  J6                   JUNCTION     0.000    0.080     0  06:53           0       0.692       0.361
  J7                   JUNCTION     0.000    0.039     0  02:35           0       0.684      -0.146
  J8                   JUNCTION     0.173    0.211     0  03:05        3.18        3.87      -0.234
  J9                   JUNCTION     0.000    0.164     0  07:20           0        2.57      -3.730
  Out_to_WWTP          OUTFALL      0.000    0.271     0  04:25           0        8.13       0.000
  T1                   STORAGE      0.000    0.464     0  06:21           0        9.67       4.234
  T2                   STORAGE      0.000    0.163     0  05:02           0        2.81      59.823
  T3                   STORAGE      0.000    0.319     0  02:51           0        6.06      26.919
  T4                   STORAGE      0.000    0.079     0  05:06           0        1.54      26.593
  T5                   STORAGE      0.000    0.101     0  01:56           0        1.68      22.277
  T6                   STORAGE      0.000    0.211     0  03:05           0        3.88      27.041
  
  
  **********************
  Node Surcharge Summary
  **********************
  
  No nodes were surcharged.
  
  
  *********************
  Node Flooding Summary
  *********************
  
  Flooding refers to all water that overflows a node, whether it ponds or not.
  --------------------------------------------------------------------------
                                                             Total   Maximum
                                 Maximum   Time of Max       Flood    Ponded
                        Hours       Rate    Occurrence      Volume     Depth
  Node                 Flooded       CMS   days hr:min    10^6 ltr    Meters
  --------------------------------------------------------------------------
  T1                      2.49     0.192      0  06:13       0.780     0.000
  T4                      1.17     0.032      0  06:15       0.079     0.000
  
  
  **********************
  Storage Volume Summary
  **********************
  
  --------------------------------------------------------------------------------------------------
                         Average     Avg  Evap Exfil       Maximum     Max    Time of Max    Maximum
                          Volume    Pcnt  Pcnt  Pcnt        Volume    Pcnt     Occurrence    Outflow
  Storage Unit           1000 m3    Full  Loss  Loss       1000 m3    Full    days hr:min        CMS
  --------------------------------------------------------------------------------------------------
  T1                       0.482      69     0     0         0.700     100       0  04:24      0.271
  T2                       0.588      59     0     0         0.992      99       0  08:40      0.134
  T3                       1.249      48     0     0         2.144      82       0  08:56      0.150
  T4                       0.303      61     0     0         0.500     100       0  06:15      0.080
  T5                       0.281      56     0     0         0.416      83       0  07:18      0.036
  T6                       0.358      60     0     0         0.527      88       0  07:20      0.164
  
  
  ***********************
  Outfall Loading Summary
  ***********************
  
  -----------------------------------------------------------
                         Flow       Avg       Max       Total
                         Freq      Flow      Flow      Volume
  Outfall Node           Pcnt       CMS       CMS    10^6 ltr
  -----------------------------------------------------------
  Out_to_WWTP           99.21     0.212     0.271       8.134
  -----------------------------------------------------------
  System                99.21     0.212     0.271       8.134
  
  
  ********************
  Link Flow Summary
  ********************
  
  -----------------------------------------------------------------------------
                                 Maximum  Time of Max   Maximum    Max/    Max/
                                  |Flow|   Occurrence   |Veloc|    Full    Full
  Link                 Type          CMS  days hr:min     m/sec    Flow   Depth
  -----------------------------------------------------------------------------
  C1                   CONDUIT     0.036     0  07:20      1.02    0.01    0.11
  C10                  CONDUIT     0.211     0  03:05      1.62    0.02    0.55
  C11                  CONDUIT     0.208     0  05:55      1.78    0.01    0.09
  C12                  CONDUIT     0.163     0  07:30      1.46    0.01    0.08
  C13                  CONDUIT     0.319     0  02:51      1.37    0.02    0.55
  C14                  CONDUIT     0.271     0  04:25      2.08    0.02    0.09
  C15                  CONDUIT     0.135     0  02:25      2.14    0.43    0.41
  C16                  CONDUIT     0.134     0  02:27      1.19    0.01    0.08
  C17                  CONDUIT     0.226     0  02:27      1.81    0.01    0.08
  C18                  CONDUIT     0.163     0  05:02      3.92    0.01    0.53
  C19                  CONDUIT     0.134     0  06:08      1.42    0.05    0.19
  C2                   CONDUIT     0.079     0  07:36      1.92    0.09    0.21
  C20                  CONDUIT     0.201     0  01:56      3.28    0.01    0.08
  C21                  CONDUIT     0.066     0  02:21      1.45    0.38    0.34
  C22                  CONDUIT     0.066     0  02:25      1.03    0.03    0.19
  C23                  CONDUIT     0.464     0  06:21      1.25    0.05    0.58
  C3                   CONDUIT     0.152     0  06:18      2.04    0.06    0.15
  C4                   CONDUIT     0.101     0  01:56      3.48    0.02    0.55
  C5                   CONDUIT     0.036     0  05:00      1.20    0.61    0.62
  C6                   CONDUIT     0.035     0  05:07      1.14    0.56    0.45
  C7                   CONDUIT     0.079     0  05:06      1.41    0.02    0.55
  C8                   CONDUIT     0.039     0  02:35      1.12    0.49    0.45
  C9                   CONDUIT     0.038     0  02:37      0.89    0.13    0.27
  V1                   ORIFICE     0.271     0  04:24                      1.00
  V2                   ORIFICE     0.134     0  06:01                      1.00
  V3                   ORIFICE     0.150     0  06:20                      1.00
  V4                   ORIFICE     0.080     0  06:53                      1.00
  V5                   ORIFICE     0.036     0  07:18                      1.00
  V6                   ORIFICE     0.164     0  07:20                      1.00
  
  
  ***************************
  Flow Classification Summary
  ***************************
  
  -------------------------------------------------------------------------------------
                      Adjusted    ---------- Fraction of Time in Flow Class ---------- 
                       /Actual         Up    Down  Sub   Sup   Up    Down  Norm  Inlet 
  Conduit               Length    Dry  Dry   Dry   Crit  Crit  Crit  Crit  Ltd   Ctrl  
  -------------------------------------------------------------------------------------
  C1                      1.00   0.00  0.00  0.00  0.32  0.67  0.00  0.00  0.97  0.00
  C10                     1.00   0.00  0.00  0.00  0.97  0.03  0.00  0.00  0.98  0.00
  C11                     1.00   0.00  0.00  0.00  0.28  0.72  0.00  0.00  1.00  0.00
  C12                     1.00   0.00  0.00  0.00  0.60  0.39  0.00  0.00  0.89  0.00
  C13                     1.00   0.00  0.00  0.00  0.89  0.11  0.00  0.00  0.82  0.00
  C14                     1.00   0.00  0.00  0.00  0.01  0.99  0.00  0.00  0.40  0.00
  C15                     1.00   0.00  0.00  0.00  0.00  1.00  0.00  0.00  0.00  0.00
  C16                     1.00   0.00  0.00  0.00  0.22  0.78  0.00  0.00  0.14  0.00
  C17                     1.00   0.00  0.00  0.00  0.23  0.77  0.00  0.00  0.98  0.00
  C18                     1.00   0.00  0.00  0.00  0.88  0.12  0.00  0.00  0.98  0.00
  C19                     1.00   0.00  0.00  0.00  0.97  0.03  0.00  0.00  1.00  0.00
  C2                      1.00   0.00  0.00  0.00  0.70  0.30  0.00  0.00  0.97  0.00
  C20                     1.00   0.00  0.00  0.00  0.39  0.61  0.00  0.00  0.99  0.00
  C21                     1.00   0.00  0.00  0.00  0.00  1.00  0.00  0.00  0.00  0.00
  C22                     1.00   0.00  0.00  0.00  0.95  0.05  0.00  0.00  1.00  0.00
  C23                     1.00   0.00  0.00  0.00  0.93  0.07  0.00  0.00  0.96  0.00
  C3                      1.00   0.00  0.00  0.00  0.04  0.95  0.00  0.00  0.44  0.00
  C4                      1.00   0.00  0.00  0.00  0.97  0.03  0.00  0.00  0.99  0.00
  C5                      1.00   0.00  0.00  0.00  0.93  0.07  0.00  0.00  0.99  0.00
  C6                      1.00   0.00  0.00  0.00  0.01  0.99  0.00  0.00  0.00  0.00
  C7                      1.00   0.00  0.00  0.00  0.93  0.07  0.00  0.00  0.97  0.00
  C8                      1.00   0.00  0.00  0.00  0.09  0.91  0.00  0.00  0.00  0.00
  C9                      1.00   0.00  0.00  0.00  1.00  0.00  0.00  0.00  1.00  0.00
  
  
  *************************
  Conduit Surcharge Summary
  *************************
  
  ----------------------------------------------------------------------------
                                                           Hours        Hours 
                         --------- Hours Full --------   Above Full   Capacity
  Conduit                Both Ends  Upstream  Dnstream   Normal Flow   Limited
  ----------------------------------------------------------------------------
  C10                         0.01      0.01      8.26      0.01         0.01
  C13                         0.01      0.01      7.15      0.01         0.01
  C18                         0.01      0.01      7.14      0.01         0.01
  C23                         0.01      0.01      8.82      0.01         0.01
  C4                          0.01      0.01      8.93      0.01         0.01
  C7                          0.01      0.01      8.24      0.01         0.01
  

  Analysis begun on:  Sun Jul 17 22:00:19 2022
  Analysis ended on:  Sun Jul 17 22:00:21 2022
  Total elapsed time: 00:00:02