
  EPA STORM WATER MANAGEMENT MODEL - VERSION 5.1 (Build 5.3.0.dev0)
  --------------------------------------------------------------

  
  *********************************************************
  NOTE: The summary statistics displayed in this report are
  based on results found at every computational time step,  
  not just on results from each reporting time step.
  *********************************************************
  
  ****************
  Analysis Options
  ****************
  Flow Units ............... CMS
  Process Models:
    Rainfall/Runoff ........ YES
    RDII ................... NO
    Snowmelt ............... NO
    Groundwater ............ NO
    Flow Routing ........... YES
    Ponding Allowed ........ NO
    Water Quality .......... NO
  Infiltration Method ...... HORTON
  Flow Routing Method ...... DYNWAVE
  Surcharge Method ......... EXTRAN
  Starting Date ............ 07/31/2007 00:50:00
  Ending Date .............. 08/01/2007 02:50:00
  Antecedent Dry Days ...... 0.0
  Report Time Step ......... 00:05:00
  Wet Time Step ............ 00:05:00
  Dry Time Step ............ 01:00:00
  Routing Time Step ........ 30.00 sec
  Variable Time Step ....... YES
  Maximum Trials ........... 8
  Number of Threads ........ 1
  Head Tolerance ........... 0.001500 m
  
  
  **************************        Volume         Depth
  Runoff Quantity Continuity     hectare-m            mm
  **************************     ---------       -------
  Total Precipitation ......         2.652        14.717
  Evaporation Loss .........         0.000         0.000
  Infiltration Loss ........         0.000         0.000
  Surface Runoff ...........         2.622        14.552
  Final Storage ............         0.031         0.174
  Continuity Error (%) .....        -0.059
  
  
  **************************        Volume        Volume
  Flow Routing Continuity        hectare-m      10^6 ltr
  **************************     ---------     ---------
  Dry Weather Inflow .......         0.771         7.714
  Wet Weather Inflow .......         2.622        26.218
  Groundwater Inflow .......         0.000         0.000
  RDII Inflow ..............         0.000         0.000
  External Inflow ..........         0.000         0.000
  External Outflow .........         1.839        18.388
  Flooding Loss ............         0.621         6.205
  Evaporation Loss .........         0.000         0.000
  Exfiltration Loss ........         0.000         0.000
  Initial Stored Volume ....         0.000         0.000
  Final Stored Volume ......         0.723         7.229
  Continuity Error (%) .....         6.219
  
  
  *************************
  Highest Continuity Errors
  *************************
  Node T2 (40.51%)
  Node T4 (22.16%)
  Node T5 (11.13%)
  Node T3 (7.53%)
  Node J6 (-7.46%)
  
  
  ***************************
  Time-Step Critical Elements
  ***************************
  Link C15 (53.67%)
  
  
  ********************************
  Highest Flow Instability Indexes
  ********************************
  Link C13 (4)
  Link C11 (3)
  Link C23 (2)
  Link C3 (2)
  Link C2 (2)
  
  
  *************************
  Routing Time Step Summary
  *************************
  Minimum Time Step           :     0.14 sec
  Average Time Step           :    26.92 sec
  Maximum Time Step           :    30.00 sec
  Percent in Steady State     :    24.31
  Average Iterations per Step :     2.01
  Percent Not Converging      :     0.00
  
  
  ***************************
  Subcatchment Runoff Summary
  ***************************
  
  ------------------------------------------------------------------------------------------------------------------------------
                            Total      Total      Total      Total     Imperv       Perv      Total       Total     Peak  Runoff
                           Precip      Runon       Evap      Infil     Runoff     Runoff     Runoff      Runoff   Runoff   Coeff
  Subcatchment                 mm         mm         mm         mm         mm         mm         mm    10^6 ltr      CMS
  ------------------------------------------------------------------------------------------------------------------------------
  SC01                      11.75       0.00       0.00       0.00      11.65       0.00      11.65        3.84     0.22   0.992
  SC010                     11.75       0.00       0.00       0.00      11.61       0.00      11.61        1.36     0.07   0.988
  SC02                      13.13       0.00       0.00       0.00      13.03       0.00      13.03        2.96     0.12   0.992
  SC03                      18.32       0.00       0.00       0.00      18.25       0.00      18.25        3.28     0.13   0.996
  SC04                      13.13       0.00       0.00       0.00      12.90       0.00      12.90        0.89     0.03   0.982
  SC05                      11.75       0.00       0.00       0.00      11.64       0.00      11.64        1.82     0.10   0.991
  SC06                      16.44       0.00       0.00       0.00      16.09       0.00      16.09        5.24     0.20   0.979
  SC07                      13.13       0.00       0.00       0.00      12.90       0.00      12.90        0.61     0.02   0.982
  SC08                      18.32       0.00       0.00       0.00      18.17       0.00      18.17        5.09     0.18   0.992
  SC09                      16.44       0.00       0.00       0.00      16.24       0.00      16.24        1.12     0.05   0.988
  
  
  ******************
  Node Depth Summary
  ******************
  
  ---------------------------------------------------------------------------------
                                 Average  Maximum  Maximum  Time of Max    Reported
                                   Depth    Depth      HGL   Occurrence   Max Depth
  Node                 Type       Meters   Meters   Meters  days hr:min      Meters
  ---------------------------------------------------------------------------------
  CSO10                JUNCTION     0.10     0.22    30.22     0  12:26        0.22
  CSO7                 JUNCTION     0.08     0.14    34.14     0  12:25        0.14
  CSO8                 JUNCTION     0.13     0.26    32.26     0  13:10        0.26
  CSO9                 JUNCTION     0.10     0.21    40.21     0  08:36        0.21
  J1                   JUNCTION     0.06     0.12    34.12     0  12:26        0.12
  J10                  JUNCTION     0.10     0.18    29.18     0  13:15        0.18
  J11                  JUNCTION     0.10     0.19    31.19     0  13:16        0.19
  J12                  JUNCTION     0.54     1.01    27.01     0  22:16        1.01
  J13                  JUNCTION     0.06     0.10    29.10     0  12:25        0.10
  J14                  JUNCTION     0.13     0.19    20.19     0  16:27        0.19
  J15                  JUNCTION     0.16     0.26    15.26     0  12:35        0.26
  J16                  JUNCTION     0.06     0.12    30.12     0  12:26        0.12
  J17                  JUNCTION     0.05     0.13    20.13     0  22:10        0.13
  J18                  JUNCTION     0.05     0.10    29.10     0  12:31        0.10
  J19                  JUNCTION     0.14     0.17     8.17     0  12:36        0.17
  J2                   JUNCTION     0.06     0.08    25.08     0  23:03        0.08
  J3                   JUNCTION     0.12     0.17    18.17     0  22:15        0.17
  J4                   JUNCTION     0.10     0.17    33.17     0  12:28        0.17
  J5                   JUNCTION     0.05     0.09    32.09     0  12:27        0.09
  J6                   JUNCTION     0.05     0.12    25.12     0  19:02        0.12
  J7                   JUNCTION     0.08     0.15    39.15     0  08:40        0.15
  J8                   JUNCTION     0.10     0.18    36.18     0  08:40        0.18
  J9                   JUNCTION     0.11     0.16    29.16     0  13:15        0.16
  Out_to_WWTP          OUTFALL      0.14     0.17     6.17     0  23:27        0.17
  T1                   STORAGE      3.35     5.00    15.00     0  12:34        5.00
  T2                   STORAGE      1.72     3.68    24.68     0  23:46        3.68
  T3                   STORAGE      3.21     5.00    27.00     0  14:13        5.00
  T4                   STORAGE      2.53     4.33    31.33     0  18:39        4.33
  T5                   STORAGE      2.60     4.38    31.38     0  23:00        4.38
  T6                   STORAGE      3.15     5.00    36.00     0  12:51        5.00
  
  
  *******************
  Node Inflow Summary
  *******************
  
  -------------------------------------------------------------------------------------------------
                                  Maximum  Maximum                  Lateral       Total        Flow
                                  Lateral    Total  Time of Max      Inflow      Inflow     Balance
                                   Inflow   Inflow   Occurrence      Volume      Volume       Error
  Node                 Type           CMS      CMS  days hr:min    10^6 ltr    10^6 ltr     Percent
  -------------------------------------------------------------------------------------------------
  CSO10                JUNCTION     0.076    0.076     0  12:30        1.64        1.64      -0.422
  CSO7                 JUNCTION     0.034    0.034     0  12:25        1.19        1.19      -0.099
  CSO8                 JUNCTION     0.189    0.189     0  13:10        5.53        5.57      -0.536
  CSO9                 JUNCTION     0.058    0.058     0  08:35        1.51        1.51       0.200
  J1                   JUNCTION     0.124    0.124     0  12:25        2.93        2.92      -0.669
  J10                  JUNCTION     0.149    0.327     0  13:13        4.05        9.74      -0.965
  J11                  JUNCTION     0.000    0.189     0  13:11           0         5.6      -1.188
  J12                  JUNCTION     0.000    0.500     0  13:15           0        17.6       3.621
  J13                  JUNCTION     0.141    0.141     0  12:25        3.89         3.9      -0.229
  J14                  JUNCTION     0.000    0.190     0  14:37           0         9.6       0.435
  J15                  JUNCTION     0.000    0.602     0  12:31           0        21.7      -0.585
  J16                  JUNCTION     0.242    0.242     0  12:25        4.94        4.93      -0.644
  J17                  JUNCTION     0.000    0.116     0  22:05           0        1.65      -0.808
  J18                  JUNCTION     0.000    0.076     0  12:27           0        1.64      -0.754
  J19                  JUNCTION     0.000    0.271     0  12:35           0        18.4       0.061
  J2                   JUNCTION     0.000    0.037     0  23:00           0        2.31       0.222
  J3                   JUNCTION     0.000    0.300     0  22:12           0        13.4      -0.352
  J4                   JUNCTION     0.000    0.034     0  12:25           0        1.19      -0.901
  J5                   JUNCTION     0.037    0.070     0  12:25        1.14        2.35      -0.351
  J6                   JUNCTION     0.000    0.074     0  18:56           0        1.45      -6.942
  J7                   JUNCTION     0.000    0.058     0  08:36           0        1.51       0.660
  J8                   JUNCTION     0.233    0.290     0  08:40         7.1         8.6       0.269
  J9                   JUNCTION     0.000    0.175     0  12:52           0        7.58      -2.440
  Out_to_WWTP          OUTFALL      0.000    0.271     0  12:36           0        18.4       0.000
  T1                   STORAGE      0.000    0.591     0  12:35           0        21.9       2.804
  T2                   STORAGE      0.000    0.140     0  12:25           0        3.91      68.107
  T3                   STORAGE      0.000    0.471     0  13:11           0          17       8.143
  T4                   STORAGE      0.000    0.070     0  12:27           0        2.36      28.467
  T5                   STORAGE      0.000    0.123     0  12:26           0        2.94      12.526
  T6                   STORAGE      0.000    0.289     0  08:41           0        8.58       3.709
  
  
  **********************
  Node Surcharge Summary
  **********************
  
  No nodes were surcharged.
  
  
  *********************
  Node Flooding Summary
  *********************
  
  Flooding refers to all water that overflows a node, whether it ponds or not.
  --------------------------------------------------------------------------
                                                             Total   Maximum
                                 Maximum   Time of Max       Flood    Ponded
                        Hours       Rate    Occurrence      Volume     Depth
  Node                 Flooded       CMS   days hr:min    10^6 ltr    Meters
  --------------------------------------------------------------------------
  T1                     10.24     0.320      0  12:35       2.361     0.000
  T3                      8.85     0.307      0  14:40       3.698     0.000
  T6                      0.60     0.158      0  13:15       0.145     0.000
  
  
  **********************
  Storage Volume Summary
  **********************
  
  --------------------------------------------------------------------------------------------------
                         Average     Avg  Evap Exfil       Maximum     Max    Time of Max    Maximum
                          Volume    Pcnt  Pcnt  Pcnt        Volume    Pcnt     Occurrence    Outflow
  Storage Unit           1000 m3    Full  Loss  Loss       1000 m3    Full    days hr:min        CMS
  --------------------------------------------------------------------------------------------------
  T1                       0.469      67     0     0         0.700     100       0  12:34      0.271
  T2                       0.344      34     0     0         0.736      74       0  23:46      0.116
  T3                       1.671      64     0     0         2.600     100       0  14:13      0.190
  T4                       0.253      51     0     0         0.433      87       0  18:39      0.074
  T5                       0.260      52     0     0         0.438      88       0  23:00      0.037
  T6                       0.378      63     0     0         0.600     100       0  12:51      0.175
  
  
  ***********************
  Outfall Loading Summary
  ***********************
  
  -----------------------------------------------------------
                         Flow       Avg       Max       Total
                         Freq      Flow      Flow      Volume
  Outfall Node           Pcnt       CMS       CMS    10^6 ltr
  -----------------------------------------------------------
  Out_to_WWTP           99.43     0.202     0.271      18.388
  -----------------------------------------------------------
  System                99.43     0.202     0.271      18.388
  
  
  ********************
  Link Flow Summary
  ********************
  
  -----------------------------------------------------------------------------
                                 Maximum  Time of Max   Maximum    Max/    Max/
                                  |Flow|   Occurrence   |Veloc|    Full    Full
  Link                 Type          CMS  days hr:min     m/sec    Flow   Depth
  -----------------------------------------------------------------------------
  C1                   CONDUIT     0.037     0  23:03      0.93    0.01    0.12
  C10                  CONDUIT     0.289     0  08:41      2.35    0.03    0.56
  C11                  CONDUIT     0.293     0  22:15      1.94    0.01    0.10
  C12                  CONDUIT     0.175     0  13:15      1.24    0.01    0.29
  C13                  CONDUIT     0.471     0  13:11      1.21    0.03    0.75
  C14                  CONDUIT     0.271     0  12:36      2.08    0.02    0.09
  C15                  CONDUIT     0.189     0  13:11      2.38    0.60    0.50
  C16                  CONDUIT     0.188     0  13:16      1.31    0.02    0.09
  C17                  CONDUIT     0.325     0  13:15      2.08    0.02    0.29
  C18                  CONDUIT     0.140     0  12:25      1.00    0.01    0.52
  C19                  CONDUIT     0.113     0  22:10      1.19    0.04    0.19
  C2                   CONDUIT     0.073     0  19:03      1.58    0.08    0.24
  C20                  CONDUIT     0.241     0  12:26      1.69    0.01    0.09
  C21                  CONDUIT     0.076     0  12:27      1.51    0.43    0.37
  C22                  CONDUIT     0.076     0  12:31      0.93    0.03    0.22
  C23                  CONDUIT     0.591     0  12:35      0.90    0.07    0.59
  C3                   CONDUIT     0.192     0  21:58      2.19    0.07    0.18
  C4                   CONDUIT     0.123     0  12:26      1.11    0.03    0.56
  C5                   CONDUIT     0.034     0  12:25      1.24    0.58    0.60
  C6                   CONDUIT     0.033     0  12:28      1.14    0.53    0.43
  C7                   CONDUIT     0.070     0  12:27      0.83    0.02    0.55
  C8                   CONDUIT     0.058     0  08:36      1.74    0.74    0.57
  C9                   CONDUIT     0.058     0  08:41      1.03    0.20    0.33
  V1                   ORIFICE     0.271     0  12:35                      1.00
  V2                   ORIFICE     0.116     0  22:05                      1.00
  V3                   ORIFICE     0.190     0  14:37                      1.00
  V4                   ORIFICE     0.074     0  18:56                      1.00
  V5                   ORIFICE     0.037     0  23:00                      1.00
  V6                   ORIFICE     0.175     0  12:52                      1.00
  
  
  ***************************
  Flow Classification Summary
  ***************************
  
  -------------------------------------------------------------------------------------
                      Adjusted    ---------- Fraction of Time in Flow Class ---------- 
                       /Actual         Up    Down  Sub   Sup   Up    Down  Norm  Inlet 
  Conduit               Length    Dry  Dry   Dry   Crit  Crit  Crit  Crit  Ltd   Ctrl  
  -------------------------------------------------------------------------------------
  C1                      1.00   0.00  0.00  0.00  0.80  0.20  0.00  0.00  0.97  0.00
  C10                     1.00   0.00  0.00  0.00  0.96  0.04  0.00  0.00  0.98  0.00
  C11                     1.00   0.00  0.00  0.00  0.05  0.95  0.00  0.00  1.00  0.00
  C12                     1.00   0.00  0.00  0.00  0.84  0.16  0.00  0.00  0.98  0.00
  C13                     1.00   0.00  0.00  0.00  0.94  0.06  0.00  0.00  0.43  0.00
  C14                     1.00   0.00  0.00  0.00  0.00  0.99  0.00  0.00  0.24  0.00
  C15                     1.00   0.02  0.00  0.00  0.00  0.98  0.00  0.00  0.01  0.00
  C16                     1.00   0.00  0.02  0.00  0.16  0.82  0.00  0.00  0.12  0.00
  C17                     1.00   0.00  0.00  0.00  0.56  0.44  0.00  0.00  0.99  0.00
  C18                     1.00   0.00  0.00  0.00  0.80  0.20  0.00  0.00  0.98  0.00
  C19                     1.00   0.00  0.00  0.00  1.00  0.00  0.00  0.00  1.00  0.00
  C2                      1.00   0.00  0.00  0.00  0.85  0.15  0.00  0.00  1.00  0.00
  C20                     1.00   0.00  0.00  0.00  0.77  0.23  0.00  0.00  0.99  0.00
  C21                     1.00   0.00  0.00  0.00  0.00  1.00  0.00  0.00  0.00  0.00
  C22                     1.00   0.00  0.00  0.00  1.00  0.00  0.00  0.00  1.00  0.00
  C23                     1.00   0.00  0.00  0.00  0.89  0.11  0.00  0.00  0.96  0.00
  C3                      1.00   0.00  0.00  0.00  0.03  0.97  0.00  0.00  0.11  0.00
  C4                      1.00   0.00  0.00  0.00  0.88  0.12  0.00  0.00  0.98  0.00
  C5                      1.00   0.00  0.00  0.00  0.91  0.09  0.00  0.00  0.99  0.00
  C6                      1.00   0.00  0.00  0.00  0.01  0.99  0.00  0.00  0.00  0.00
  C7                      1.00   0.00  0.00  0.00  0.95  0.05  0.00  0.00  0.97  0.00
  C8                      1.00   0.00  0.00  0.00  0.04  0.96  0.00  0.00  0.00  0.00
  C9                      1.00   0.00  0.00  0.00  1.00  0.00  0.00  0.00  1.00  0.00
  
  
  *************************
  Conduit Surcharge Summary
  *************************
  
  ----------------------------------------------------------------------------
                                                           Hours        Hours 
                         --------- Hours Full --------   Above Full   Capacity
  Conduit                Both Ends  Upstream  Dnstream   Normal Flow   Limited
  ----------------------------------------------------------------------------
  C10                         0.01      0.01     17.26      0.01         0.01
  C13                         0.01      0.01     16.73      0.01         0.01
  C18                         0.01      0.01     12.59      0.01         0.01
  C23                         0.01      0.01     19.35      0.01         0.01
  C4                          0.01      0.01     17.44      0.01         0.01
  C7                          0.01      0.01     16.48      0.01         0.01
  

  Analysis begun on:  Sun Jul 17 20:05:48 2022
  Analysis ended on:  Sun Jul 17 20:05:51 2022
  Total elapsed time: 00:00:03