
  EPA STORM WATER MANAGEMENT MODEL - VERSION 5.1 (Build 5.3.0.dev0)
  --------------------------------------------------------------

  
  *********************************************************
  NOTE: The summary statistics displayed in this report are
  based on results found at every computational time step,  
  not just on results from each reporting time step.
  *********************************************************
  
  ****************
  Analysis Options
  ****************
  Flow Units ............... CMS
  Process Models:
    Rainfall/Runoff ........ YES
    RDII ................... NO
    Snowmelt ............... NO
    Groundwater ............ NO
    Flow Routing ........... YES
    Ponding Allowed ........ NO
    Water Quality .......... NO
  Infiltration Method ...... HORTON
  Flow Routing Method ...... DYNWAVE
  Surcharge Method ......... EXTRAN
  Starting Date ............ 03/19/2007 14:15:00
  Ending Date .............. 03/20/2007 15:55:00
  Antecedent Dry Days ...... 0.0
  Report Time Step ......... 00:05:00
  Wet Time Step ............ 00:05:00
  Dry Time Step ............ 01:00:00
  Routing Time Step ........ 30.00 sec
  Variable Time Step ....... YES
  Maximum Trials ........... 8
  Number of Threads ........ 1
  Head Tolerance ........... 0.001500 m
  
  
  **************************        Volume         Depth
  Runoff Quantity Continuity     hectare-m            mm
  **************************     ---------       -------
  Total Precipitation ......         1.354         7.515
  Evaporation Loss .........         0.000         0.000
  Infiltration Loss ........         0.000         0.000
  Surface Runoff ...........         1.335         7.408
  Final Storage ............         0.020         0.110
  Continuity Error (%) .....        -0.041
  
  
  **************************        Volume        Volume
  Flow Routing Continuity        hectare-m      10^6 ltr
  **************************     ---------     ---------
  Dry Weather Inflow .......         0.830         8.298
  Wet Weather Inflow .......         1.335        13.348
  Groundwater Inflow .......         0.000         0.000
  RDII Inflow ..............         0.000         0.000
  External Inflow ..........         0.000         0.000
  External Outflow .........         1.481        14.813
  Flooding Loss ............         0.000         0.000
  Evaporation Loss .........         0.000         0.000
  Exfiltration Loss ........         0.000         0.000
  Initial Stored Volume ....         0.000         0.000
  Final Stored Volume ......         0.561         5.609
  Continuity Error (%) .....         5.655
  
  
  *************************
  Highest Continuity Errors
  *************************
  Node T2 (25.60%)
  Node T6 (18.11%)
  Node T3 (11.40%)
  Node T4 (7.70%)
  Node T5 (6.77%)
  
  
  ***************************
  Time-Step Critical Elements
  ***************************
  Link C15 (28.13%)
  
  
  ********************************
  Highest Flow Instability Indexes
  ********************************
  Link C20 (4)
  Link C15 (3)
  Link C23 (3)
  Link C3 (3)
  Link C19 (3)
  
  
  *************************
  Routing Time Step Summary
  *************************
  Minimum Time Step           :     0.08 sec
  Average Time Step           :    28.74 sec
  Maximum Time Step           :    30.00 sec
  Percent in Steady State     :     8.83
  Average Iterations per Step :     2.03
  Percent Not Converging      :     0.00
  
  
  ***************************
  Subcatchment Runoff Summary
  ***************************
  
  ------------------------------------------------------------------------------------------------------------------------------
                            Total      Total      Total      Total     Imperv       Perv      Total       Total     Peak  Runoff
                           Precip      Runon       Evap      Infil     Runoff     Runoff     Runoff      Runoff   Runoff   Coeff
  Subcatchment                 mm         mm         mm         mm         mm         mm         mm    10^6 ltr      CMS
  ------------------------------------------------------------------------------------------------------------------------------
  SC01                       6.06       0.00       0.00       0.00       5.99       0.00       5.99        1.98     0.07   0.989
  SC010                      6.06       0.00       0.00       0.00       5.98       0.00       5.98        0.70     0.02   0.986
  SC02                       6.09       0.00       0.00       0.00       6.02       0.00       6.02        1.37     0.04   0.988
  SC03                      10.51       0.00       0.00       0.00      10.43       0.00      10.43        1.88     0.09   0.993
  SC04                       6.09       0.00       0.00       0.00       5.97       0.00       5.97        0.41     0.01   0.980
  SC05                       6.06       0.00       0.00       0.00       5.99       0.00       5.99        0.93     0.03   0.988
  SC06                       7.49       0.00       0.00       0.00       7.31       0.00       7.31        2.38     0.09   0.976
  SC07                       6.09       0.00       0.00       0.00       5.97       0.00       5.97        0.28     0.01   0.980
  SC08                      10.51       0.00       0.00       0.00      10.38       0.00      10.38        2.91     0.13   0.988
  SC09                       7.49       0.00       0.00       0.00       7.36       0.00       7.36        0.51     0.02   0.983
  
  
  ******************
  Node Depth Summary
  ******************
  
  ---------------------------------------------------------------------------------
                                 Average  Maximum  Maximum  Time of Max    Reported
                                   Depth    Depth      HGL   Occurrence   Max Depth
  Node                 Type       Meters   Meters   Meters  days hr:min      Meters
  ---------------------------------------------------------------------------------
  CSO10                JUNCTION     0.08     0.12    30.12     0  13:50        0.12
  CSO7                 JUNCTION     0.07     0.09    34.09     0  04:01        0.09
  CSO8                 JUNCTION     0.11     0.21    32.21     0  12:35        0.21
  CSO9                 JUNCTION     0.08     0.12    40.12     0  13:00        0.12
  J1                   JUNCTION     0.05     0.07    34.07     0  02:31        0.07
  J10                  JUNCTION     0.08     0.15    29.15     0  12:38        0.15
  J11                  JUNCTION     0.08     0.16    31.16     0  12:39        0.16
  J12                  JUNCTION     0.11     0.18    26.18     0  12:42        0.18
  J13                  JUNCTION     0.05     0.07    29.07     0  03:41        0.07
  J14                  JUNCTION     0.11     0.18    20.18     0  14:22        0.18
  J15                  JUNCTION     0.14     0.19    15.19     0  14:05        0.19
  J16                  JUNCTION     0.05     0.07    30.07     0  13:11        0.07
  J17                  JUNCTION     0.05     0.13    20.13     0  19:42        0.13
  J18                  JUNCTION     0.04     0.06    29.06     0  13:52        0.06
  J19                  JUNCTION     0.13     0.15     8.15     0  14:15        0.15
  J2                   JUNCTION     0.06     0.06    25.06     0  23:46        0.06
  J3                   JUNCTION     0.10     0.14    18.14     0  19:55        0.14
  J4                   JUNCTION     0.09     0.11    33.11     0  03:52        0.11
  J5                   JUNCTION     0.05     0.06    32.06     0  03:51        0.06
  J6                   JUNCTION     0.05     0.07    25.07     0  03:20        0.07
  J7                   JUNCTION     0.06     0.09    39.09     0  13:03        0.09
  J8                   JUNCTION     0.08     0.11    36.11     0  13:03        0.11
  J9                   JUNCTION     0.08     0.14    29.14     0  18:40        0.14
  Out_to_WWTP          OUTFALL      0.13     0.15     6.15     0  14:15        0.15
  T1                   STORAGE      1.91     3.25    13.25     0  14:14        3.25
  T2                   STORAGE      1.93     2.76    23.76     0  23:45        2.76
  T3                   STORAGE      2.81     4.11    26.11     0  22:00        4.11
  T4                   STORAGE      1.18     1.69    28.69     0  23:49        1.69
  T5                   STORAGE      1.32     1.74    28.74     0  23:45        1.74
  T6                   STORAGE      1.61     4.39    35.39     1  01:40        4.39
  
  
  *******************
  Node Inflow Summary
  *******************
  
  -------------------------------------------------------------------------------------------------
                                  Maximum  Maximum                  Lateral       Total        Flow
                                  Lateral    Total  Time of Max      Inflow      Inflow     Balance
                                   Inflow   Inflow   Occurrence      Volume      Volume       Error
  Node                 Type           CMS      CMS  days hr:min    10^6 ltr    10^6 ltr     Percent
  -------------------------------------------------------------------------------------------------
  CSO10                JUNCTION     0.023    0.023     0  13:50       0.998           1       0.081
  CSO7                 JUNCTION     0.015    0.015     0  04:00       0.901       0.902       0.206
  CSO8                 JUNCTION     0.132    0.132     0  12:35        3.42        3.42       0.012
  CSO9                 JUNCTION     0.022    0.022     0  13:00       0.925       0.926       0.119
  J1                   JUNCTION     0.039    0.039     0  02:30        2.13        2.13       0.148
  J10                  JUNCTION     0.096    0.223     0  12:36         2.7        6.13      -0.006
  J11                  JUNCTION     0.000    0.132     0  12:35           0        3.42      -0.053
  J12                  JUNCTION     0.000    0.276     0  12:39           0        9.98      -0.630
  J13                  JUNCTION     0.053    0.053     0  03:40        2.36        2.37       0.019
  J14                  JUNCTION     0.000    0.170     0  19:45           0        6.77       2.950
  J15                  JUNCTION     0.000    0.329     0  12:55           0          15       0.266
  J16                  JUNCTION     0.069    0.069     0  13:10        3.15        3.16       0.078
  J17                  JUNCTION     0.000    0.100     0  19:35           0        1.21       0.214
  J18                  JUNCTION     0.000    0.023     0  13:50           0       0.999      -0.076
  J19                  JUNCTION     0.000    0.218     0  14:14           0        14.8       0.041
  J2                   JUNCTION     0.000    0.023     0  23:45           0        1.83       0.193
  J3                   JUNCTION     0.000    0.208     0  19:48           0         9.7       0.624
  J4                   JUNCTION     0.000    0.015     0  04:01           0         0.9       0.333
  J5                   JUNCTION     0.015    0.030     0  04:00       0.683        1.58       0.084
  J6                   JUNCTION     0.000    0.025     0  03:20           0         1.3       0.199
  J7                   JUNCTION     0.000    0.022     0  13:00           0       0.925       0.070
  J8                   JUNCTION     0.095    0.116     0  13:00        4.38        5.31       0.032
  J9                   JUNCTION     0.000    0.136     0  20:05           0        3.82      -0.804
  Out_to_WWTP          OUTFALL      0.000    0.218     0  14:15           0        14.8       0.000
  T1                   STORAGE      0.000    0.303     0  14:06           0          15      -0.331
  T2                   STORAGE      0.000    0.053     0  03:41           0        2.36      34.403
  T3                   STORAGE      0.000    0.274     0  12:43           0          10      12.871
  T4                   STORAGE      0.000    0.030     0  03:52           0        1.58       8.345
  T5                   STORAGE      0.000    0.039     0  02:31           0        2.13       7.260
  T6                   STORAGE      0.000    0.115     0  13:03           0        5.31      22.115
  
  
  **********************
  Node Surcharge Summary
  **********************
  
  No nodes were surcharged.
  
  
  *********************
  Node Flooding Summary
  *********************
  
  No nodes were flooded.
  
  
  **********************
  Storage Volume Summary
  **********************
  
  --------------------------------------------------------------------------------------------------
                         Average     Avg  Evap Exfil       Maximum     Max    Time of Max    Maximum
                          Volume    Pcnt  Pcnt  Pcnt        Volume    Pcnt     Occurrence    Outflow
  Storage Unit           1000 m3    Full  Loss  Loss       1000 m3    Full    days hr:min        CMS
  --------------------------------------------------------------------------------------------------
  T1                       0.267      38     0     0         0.455      65       0  14:14      0.218
  T2                       0.386      39     0     0         0.552      55       0  23:45      0.100
  T3                       1.459      56     0     0         2.136      82       0  22:00      0.170
  T4                       0.118      24     0     0         0.169      34       0  23:49      0.025
  T5                       0.132      26     0     0         0.174      35       0  23:45      0.023
  T6                       0.193      32     0     0         0.527      88       1  01:40      0.136
  
  
  ***********************
  Outfall Loading Summary
  ***********************
  
  -----------------------------------------------------------
                         Flow       Avg       Max       Total
                         Freq      Flow      Flow      Volume
  Outfall Node           Pcnt       CMS       CMS    10^6 ltr
  -----------------------------------------------------------
  Out_to_WWTP           99.66     0.161     0.218      14.813
  -----------------------------------------------------------
  System                99.66     0.161     0.218      14.813
  
  
  ********************
  Link Flow Summary
  ********************
  
  -----------------------------------------------------------------------------
                                 Maximum  Time of Max   Maximum    Max/    Max/
                                  |Flow|   Occurrence   |Veloc|    Full    Full
  Link                 Type          CMS  days hr:min     m/sec    Flow   Depth
  -----------------------------------------------------------------------------
  C1                   CONDUIT     0.023     0  23:46      0.94    0.01    0.10
  C10                  CONDUIT     0.115     0  13:03      1.69    0.01    0.53
  C11                  CONDUIT     0.205     0  19:55      1.90    0.01    0.08
  C12                  CONDUIT     0.118     0  20:10      1.44    0.01    0.07
  C13                  CONDUIT     0.274     0  12:43      1.56    0.02    0.54
  C14                  CONDUIT     0.218     0  14:15      1.95    0.01    0.08
  C15                  CONDUIT     0.132     0  12:35      2.13    0.42    0.41
  C16                  CONDUIT     0.130     0  12:39      1.18    0.01    0.08
  C17                  CONDUIT     0.223     0  12:38      1.87    0.01    0.08
  C18                  CONDUIT     0.053     0  03:41      3.22    0.00    0.52
  C19                  CONDUIT     0.099     0  19:42      1.40    0.03    0.15
  C2                   CONDUIT     0.025     0  03:20      0.99    0.03    0.16
  C20                  CONDUIT     0.068     0  13:11      2.30    0.00    0.06
  C21                  CONDUIT     0.023     0  13:50      1.07    0.13    0.20
  C22                  CONDUIT     0.023     0  13:52      0.58    0.01    0.15
  C23                  CONDUIT     0.303     0  14:06      1.26    0.03    0.56
  C3                   CONDUIT     0.171     0  19:48      2.22    0.07    0.16
  C4                   CONDUIT     0.039     0  02:31      2.44    0.01    0.53
  C5                   CONDUIT     0.015     0  04:01      1.25    0.26    0.38
  C6                   CONDUIT     0.015     0  03:52      0.95    0.24    0.28
  C7                   CONDUIT     0.030     0  03:52      1.47    0.01    0.53
  C8                   CONDUIT     0.022     0  13:00      0.97    0.28    0.33
  C9                   CONDUIT     0.022     0  13:03      0.75    0.07    0.21
  V1                   ORIFICE     0.218     0  14:14                      1.00
  V2                   ORIFICE     0.100     0  19:35                      1.00
  V3                   ORIFICE     0.170     0  19:45                      1.00
  V4                   ORIFICE     0.025     0  03:20                      1.00
  V5                   ORIFICE     0.023     0  23:45                      1.00
  V6                   ORIFICE     0.136     0  20:05                      1.00
  
  
  ***************************
  Flow Classification Summary
  ***************************
  
  -------------------------------------------------------------------------------------
                      Adjusted    ---------- Fraction of Time in Flow Class ---------- 
                       /Actual         Up    Down  Sub   Sup   Up    Down  Norm  Inlet 
  Conduit               Length    Dry  Dry   Dry   Crit  Crit  Crit  Crit  Ltd   Ctrl  
  -------------------------------------------------------------------------------------
  C1                      1.00   0.00  0.00  0.00  0.48  0.52  0.00  0.00  0.98  0.00
  C10                     1.00   0.00  0.00  0.00  0.98  0.02  0.00  0.00  0.99  0.00
  C11                     1.00   0.00  0.00  0.00  0.03  0.97  0.00  0.00  1.00  0.00
  C12                     1.00   0.00  0.00  0.00  0.80  0.20  0.00  0.00  0.99  0.00
  C13                     1.00   0.00  0.00  0.00  0.97  0.03  0.00  0.00  0.87  0.00
  C14                     1.00   0.00  0.00  0.00  0.00  0.99  0.00  0.00  0.87  0.00
  C15                     1.00   0.00  0.00  0.00  0.00  1.00  0.00  0.00  0.00  0.00
  C16                     1.00   0.00  0.00  0.00  0.32  0.68  0.00  0.00  0.24  0.00
  C17                     1.00   0.00  0.00  0.00  0.05  0.95  0.00  0.00  0.99  0.00
  C18                     1.00   0.00  0.00  0.00  0.98  0.02  0.00  0.00  0.99  0.00
  C19                     1.00   0.00  0.00  0.00  0.99  0.01  0.00  0.00  1.00  0.00
  C2                      1.00   0.00  0.00  0.00  0.46  0.54  0.00  0.00  0.99  0.00
  C20                     1.00   0.00  0.00  0.00  0.82  0.18  0.00  0.00  0.99  0.00
  C21                     1.00   0.00  0.00  0.00  0.00  1.00  0.00  0.00  0.00  0.00
  C22                     1.00   0.00  0.00  0.00  0.99  0.01  0.00  0.00  1.00  0.00
  C23                     1.00   0.00  0.00  0.00  0.97  0.03  0.00  0.00  0.98  0.00
  C3                      1.00   0.00  0.00  0.00  0.01  0.98  0.00  0.00  0.20  0.00
  C4                      1.00   0.00  0.00  0.00  0.99  0.01  0.00  0.00  0.99  0.00
  C5                      1.00   0.00  0.00  0.00  0.95  0.05  0.00  0.00  0.99  0.00
  C6                      1.00   0.00  0.00  0.00  0.00  1.00  0.00  0.00  0.00  0.00
  C7                      1.00   0.00  0.00  0.00  0.98  0.02  0.00  0.00  0.99  0.00
  C8                      1.00   0.00  0.00  0.00  0.00  1.00  0.00  0.00  0.00  0.00
  C9                      1.00   0.00  0.00  0.00  1.00  0.00  0.00  0.00  1.00  0.00
  
  
  *************************
  Conduit Surcharge Summary
  *************************
  
  ----------------------------------------------------------------------------
                                                           Hours        Hours 
                         --------- Hours Full --------   Above Full   Capacity
  Conduit                Both Ends  Upstream  Dnstream   Normal Flow   Limited
  ----------------------------------------------------------------------------
  C10                         0.01      0.01     10.57      0.01         0.01
  C13                         0.01      0.01     18.49      0.01         0.01
  C18                         0.01      0.01     13.92      0.01         0.01
  C23                         0.01      0.01     19.70      0.01         0.01
  C4                          0.01      0.01     21.85      0.01         0.01
  C7                          0.01      0.01     20.88      0.01         0.01
  

  Analysis begun on:  Sun Jul 17 19:46:02 2022
  Analysis ended on:  Sun Jul 17 19:46:07 2022
  Total elapsed time: 00:00:05