
  EPA STORM WATER MANAGEMENT MODEL - VERSION 5.1 (Build 5.3.0.dev0)
  --------------------------------------------------------------

  
  *********************************************************
  NOTE: The summary statistics displayed in this report are
  based on results found at every computational time step,  
  not just on results from each reporting time step.
  *********************************************************
  
  ****************
  Analysis Options
  ****************
  Flow Units ............... CMS
  Process Models:
    Rainfall/Runoff ........ YES
    RDII ................... NO
    Snowmelt ............... NO
    Groundwater ............ NO
    Flow Routing ........... YES
    Ponding Allowed ........ NO
    Water Quality .......... NO
  Infiltration Method ...... HORTON
  Flow Routing Method ...... DYNWAVE
  Surcharge Method ......... EXTRAN
  Starting Date ............ 02/21/2007 13:55:00
  Ending Date .............. 02/22/2007 09:50:00
  Antecedent Dry Days ...... 0.0
  Report Time Step ......... 00:05:00
  Wet Time Step ............ 00:05:00
  Dry Time Step ............ 01:00:00
  Routing Time Step ........ 30.00 sec
  Variable Time Step ....... YES
  Maximum Trials ........... 8
  Number of Threads ........ 1
  Head Tolerance ........... 0.001500 m
  
  
  **************************        Volume         Depth
  Runoff Quantity Continuity     hectare-m            mm
  **************************     ---------       -------
  Total Precipitation ......         1.389         7.710
  Evaporation Loss .........         0.000         0.000
  Infiltration Loss ........         0.000         0.000
  Surface Runoff ...........         1.363         7.563
  Final Storage ............         0.027         0.151
  Continuity Error (%) .....        -0.051
  
  
  **************************        Volume        Volume
  Flow Routing Continuity        hectare-m      10^6 ltr
  **************************     ---------     ---------
  Dry Weather Inflow .......         0.527         5.274
  Wet Weather Inflow .......         1.363        13.626
  Groundwater Inflow .......         0.000         0.000
  RDII Inflow ..............         0.000         0.000
  External Inflow ..........         0.000         0.000
  External Outflow .........         1.434        14.345
  Flooding Loss ............         0.037         0.374
  Evaporation Loss .........         0.000         0.000
  Exfiltration Loss ........         0.000         0.000
  Initial Stored Volume ....         0.000         0.000
  Final Stored Volume ......         0.350         3.505
  Continuity Error (%) .....         3.581
  
  
  *************************
  Highest Continuity Errors
  *************************
  Node T6 (16.34%)
  Node T4 (13.52%)
  Node T5 (9.53%)
  Node T3 (6.20%)
  Node T1 (2.30%)
  
  
  ***************************
  Time-Step Critical Elements
  ***************************
  Link C15 (12.56%)
  
  
  ********************************
  Highest Flow Instability Indexes
  ********************************
  Link C11 (4)
  Link C15 (4)
  Link C2 (4)
  Link C23 (3)
  Link C20 (3)
  
  
  *************************
  Routing Time Step Summary
  *************************
  Minimum Time Step           :     0.27 sec
  Average Time Step           :    29.41 sec
  Maximum Time Step           :    30.00 sec
  Percent in Steady State     :     4.85
  Average Iterations per Step :     2.01
  Percent Not Converging      :     0.00
  
  
  ***************************
  Subcatchment Runoff Summary
  ***************************
  
  ------------------------------------------------------------------------------------------------------------------------------
                            Total      Total      Total      Total     Imperv       Perv      Total       Total     Peak  Runoff
                           Precip      Runon       Evap      Infil     Runoff     Runoff     Runoff      Runoff   Runoff   Coeff
  Subcatchment                 mm         mm         mm         mm         mm         mm         mm    10^6 ltr      CMS
  ------------------------------------------------------------------------------------------------------------------------------
  SC01                       8.57       0.00       0.00       0.00       8.46       0.00       8.46        2.79     0.10   0.987
  SC010                      8.57       0.00       0.00       0.00       8.42       0.00       8.42        0.99     0.03   0.983
  SC02                       6.81       0.00       0.00       0.00       6.69       0.00       6.69        1.52     0.06   0.983
  SC03                       6.68       0.00       0.00       0.00       6.61       0.00       6.61        1.19     0.06   0.989
  SC04                       6.81       0.00       0.00       0.00       6.59       0.00       6.59        0.45     0.02   0.968
  SC05                       8.57       0.00       0.00       0.00       8.45       0.00       8.45        1.32     0.05   0.986
  SC06                       8.38       0.00       0.00       0.00       8.12       0.00       8.12        2.64     0.10   0.970
  SC07                       6.81       0.00       0.00       0.00       6.59       0.00       6.59        0.31     0.01   0.968
  SC08                       6.68       0.00       0.00       0.00       6.56       0.00       6.56        1.84     0.08   0.982
  SC09                       8.38       0.00       0.00       0.00       8.21       0.00       8.21        0.57     0.02   0.980
  
  
  ******************
  Node Depth Summary
  ******************
  
  ---------------------------------------------------------------------------------
                                 Average  Maximum  Maximum  Time of Max    Reported
                                   Depth    Depth      HGL   Occurrence   Max Depth
  Node                 Type       Meters   Meters   Meters  days hr:min      Meters
  ---------------------------------------------------------------------------------
  CSO10                JUNCTION     0.10     0.15    30.15     0  06:50        0.15
  CSO7                 JUNCTION     0.07     0.09    34.09     0  06:36        0.09
  CSO8                 JUNCTION     0.09     0.17    32.17     0  06:20        0.17
  CSO9                 JUNCTION     0.08     0.14    40.14     0  06:41        0.14
  J1                   JUNCTION     0.06     0.09    34.09     0  06:00        0.08
  J10                  JUNCTION     0.07     0.12    29.12     0  06:22        0.12
  J11                  JUNCTION     0.07     0.13    31.13     0  06:22        0.13
  J12                  JUNCTION     0.11     0.16    26.16     0  07:14        0.16
  J13                  JUNCTION     0.05     0.07    29.07     0  06:36        0.07
  J14                  JUNCTION     0.12     0.16    20.16     0  12:03        0.15
  J15                  JUNCTION     0.16     0.20    15.20     0  07:01        0.20
  J16                  JUNCTION     0.06     0.09    30.09     0  05:41        0.09
  J17                  JUNCTION     0.07     0.09    20.09     0  07:41        0.09
  J18                  JUNCTION     0.05     0.07    29.07     0  06:51        0.07
  J19                  JUNCTION     0.14     0.17     8.17     0  08:17        0.17
  J2                   JUNCTION     0.06     0.07    25.07     0  11:27        0.07
  J3                   JUNCTION     0.11     0.14    18.14     0  08:26        0.14
  J4                   JUNCTION     0.09     0.11    33.11     0  06:41        0.11
  J5                   JUNCTION     0.05     0.07    32.07     0  06:40        0.07
  J6                   JUNCTION     0.05     0.08    25.08     0  08:25        0.08
  J7                   JUNCTION     0.07     0.10    39.10     0  06:50        0.10
  J8                   JUNCTION     0.09     0.13    36.13     0  06:51        0.13
  J9                   JUNCTION     0.09     0.16    29.16     0  11:43        0.16
  Out_to_WWTP          OUTFALL      0.14     0.17     6.17     0  11:52        0.17
  T1                   STORAGE      3.09     5.00    15.00     0  08:17        5.00
  T2                   STORAGE      0.30     0.62    21.62     0  07:40        0.62
  T3                   STORAGE      1.51     2.20    24.20     0  08:18        2.20
  T4                   STORAGE      1.38     2.37    29.37     0  19:55        2.37
  T5                   STORAGE      1.94     2.99    29.99     0  11:25        2.99
  T6                   STORAGE      2.44     4.15    35.15     0  19:55        4.15
  
  
  *******************
  Node Inflow Summary
  *******************
  
  -------------------------------------------------------------------------------------------------
                                  Maximum  Maximum                  Lateral       Total        Flow
                                  Lateral    Total  Time of Max      Inflow      Inflow     Balance
                                   Inflow   Inflow   Occurrence      Volume      Volume       Error
  Node                 Type           CMS      CMS  days hr:min    10^6 ltr    10^6 ltr     Percent
  -------------------------------------------------------------------------------------------------
  CSO10                JUNCTION     0.038    0.038     0  06:50        1.18        1.18       0.069
  CSO7                 JUNCTION     0.017    0.017     0  06:35       0.708       0.708       0.082
  CSO8                 JUNCTION     0.085    0.085     0  06:20        2.13        2.14      -0.007
  CSO9                 JUNCTION     0.028    0.028     0  06:40       0.833       0.834       0.083
  J1                   JUNCTION     0.061    0.061     0  06:00        2.08        2.08       0.124
  J10                  JUNCTION     0.073    0.151     0  06:20        1.71        3.85      -0.031
  J11                  JUNCTION     0.000    0.085     0  06:20           0        2.14       0.030
  J12                  JUNCTION     0.000    0.227     0  10:50           0        7.32       0.026
  J13                  JUNCTION     0.068    0.068     0  06:35        2.16        2.16       0.013
  J14                  JUNCTION     0.000    0.125     0  08:18           0        6.05       0.072
  J15                  JUNCTION     0.000    0.357     0  06:59           0        15.4       0.516
  J16                  JUNCTION     0.115    0.115     0  05:40        3.54        3.54       0.101
  J17                  JUNCTION     0.000    0.049     0  07:40           0        2.15       0.165
  J18                  JUNCTION     0.000    0.038     0  06:50           0        1.17       0.240
  J19                  JUNCTION     0.000    0.271     0  08:17           0        14.4       0.062
  J2                   JUNCTION     0.000    0.030     0  11:25           0        1.68       0.235
  J3                   JUNCTION     0.000    0.191     0  08:25           0        8.63       0.392
  J4                   JUNCTION     0.000    0.017     0  06:36           0       0.708       0.621
  J5                   JUNCTION     0.018    0.035     0  06:39       0.628        1.33       0.184
  J6                   JUNCTION     0.000    0.038     0  08:20           0       0.913       0.209
  J7                   JUNCTION     0.000    0.028     0  06:41           0       0.833       0.587
  J8                   JUNCTION     0.120    0.147     0  06:50        3.92        4.75       0.202
  J9                   JUNCTION     0.000    0.158     0  15:15           0        3.47       0.008
  Out_to_WWTP          OUTFALL      0.000    0.271     0  08:18           0        14.3       0.000
  T1                   STORAGE      0.000    0.354     0  07:01           0        15.4       2.354
  T2                   STORAGE      0.000    0.067     0  06:36           0        2.16      -0.680
  T3                   STORAGE      0.000    0.219     0  07:15           0        7.32       6.609
  T4                   STORAGE      0.000    0.035     0  06:40           0        1.33      15.637
  T5                   STORAGE      0.000    0.061     0  06:01           0        2.08      10.539
  T6                   STORAGE      0.000    0.147     0  06:51           0        4.74      19.531
  
  
  **********************
  Node Surcharge Summary
  **********************
  
  No nodes were surcharged.
  
  
  *********************
  Node Flooding Summary
  *********************
  
  Flooding refers to all water that overflows a node, whether it ponds or not.
  --------------------------------------------------------------------------
                                                             Total   Maximum
                                 Maximum   Time of Max       Flood    Ponded
                        Hours       Rate    Occurrence      Volume     Depth
  Node                 Flooded       CMS   days hr:min    10^6 ltr    Meters
  --------------------------------------------------------------------------
  T1                      3.38     0.063      0  09:53       0.374     0.000
  
  
  **********************
  Storage Volume Summary
  **********************
  
  --------------------------------------------------------------------------------------------------
                         Average     Avg  Evap Exfil       Maximum     Max    Time of Max    Maximum
                          Volume    Pcnt  Pcnt  Pcnt        Volume    Pcnt     Occurrence    Outflow
  Storage Unit           1000 m3    Full  Loss  Loss       1000 m3    Full    days hr:min        CMS
  --------------------------------------------------------------------------------------------------
  T1                       0.432      62     0     0         0.700     100       0  08:17      0.271
  T2                       0.061       6     0     0         0.125      12       0  07:40      0.049
  T3                       0.783      30     0     0         1.146      44       0  08:18      0.125
  T4                       0.138      28     0     0         0.237      47       0  19:55      0.038
  T5                       0.194      39     0     0         0.299      60       0  11:25      0.030
  T6                       0.293      49     0     0         0.498      83       0  19:55      0.158
  
  
  ***********************
  Outfall Loading Summary
  ***********************
  
  -----------------------------------------------------------
                         Flow       Avg       Max       Total
                         Freq      Flow      Flow      Volume
  Outfall Node           Pcnt       CMS       CMS    10^6 ltr
  -----------------------------------------------------------
  Out_to_WWTP           99.63     0.201     0.271      14.345
  -----------------------------------------------------------
  System                99.63     0.201     0.271      14.345
  
  
  ********************
  Link Flow Summary
  ********************
  
  -----------------------------------------------------------------------------
                                 Maximum  Time of Max   Maximum    Max/    Max/
                                  |Flow|   Occurrence   |Veloc|    Full    Full
  Link                 Type          CMS  days hr:min     m/sec    Flow   Depth
  -----------------------------------------------------------------------------
  C1                   CONDUIT     0.030     0  11:27      0.94    0.01    0.10
  C10                  CONDUIT     0.147     0  06:51      1.81    0.02    0.54
  C11                  CONDUIT     0.187     0  08:26      1.63    0.01    0.08
  C12                  CONDUIT     0.156     0  11:45      1.62    0.01    0.08
  C13                  CONDUIT     0.219     0  07:15      1.40    0.01    0.54
  C14                  CONDUIT     0.271     0  08:18      2.08    0.02    0.09
  C15                  CONDUIT     0.085     0  06:20      1.87    0.27    0.32
  C16                  CONDUIT     0.084     0  06:23      1.02    0.01    0.06
  C17                  CONDUIT     0.150     0  06:22      1.56    0.01    0.07
  C18                  CONDUIT     0.067     0  06:36      3.17    0.00    0.17
  C19                  CONDUIT     0.049     0  07:42      0.77    0.02    0.15
  C2                   CONDUIT     0.037     0  08:25      1.23    0.04    0.18
  C20                  CONDUIT     0.114     0  05:41      3.22    0.00    0.07
  C21                  CONDUIT     0.038     0  06:50      1.24    0.22    0.26
  C22                  CONDUIT     0.038     0  06:51      0.71    0.02    0.17
  C23                  CONDUIT     0.354     0  07:01      1.30    0.04    0.57
  C3                   CONDUIT     0.126     0  08:23      1.94    0.05    0.14
  C4                   CONDUIT     0.061     0  06:01      3.10    0.01    0.54
  C5                   CONDUIT     0.017     0  06:36      1.34    0.29    0.41
  C6                   CONDUIT     0.017     0  06:41      0.95    0.27    0.30
  C7                   CONDUIT     0.035     0  06:40      1.52    0.01    0.53
  C8                   CONDUIT     0.028     0  06:41      1.04    0.36    0.37
  C9                   CONDUIT     0.027     0  06:50      0.80    0.09    0.23
  V1                   ORIFICE     0.271     0  08:17                      1.00
  V2                   ORIFICE     0.049     0  07:40                      1.00
  V3                   ORIFICE     0.125     0  08:18                      1.00
  V4                   ORIFICE     0.038     0  08:20                      1.00
  V5                   ORIFICE     0.030     0  11:25                      1.00
  V6                   ORIFICE     0.158     0  15:15                      1.00
  
  
  ***************************
  Flow Classification Summary
  ***************************
  
  -------------------------------------------------------------------------------------
                      Adjusted    ---------- Fraction of Time in Flow Class ---------- 
                       /Actual         Up    Down  Sub   Sup   Up    Down  Norm  Inlet 
  Conduit               Length    Dry  Dry   Dry   Crit  Crit  Crit  Crit  Ltd   Ctrl  
  -------------------------------------------------------------------------------------
  C1                      1.00   0.00  0.00  0.00  0.64  0.36  0.00  0.00  0.98  0.00
  C10                     1.00   0.00  0.00  0.00  0.99  0.01  0.00  0.00  0.99  0.00
  C11                     1.00   0.00  0.00  0.00  0.04  0.96  0.00  0.00  1.00  0.00
  C12                     1.00   0.00  0.00  0.00  0.56  0.44  0.00  0.00  0.92  0.00
  C13                     1.00   0.00  0.00  0.00  0.94  0.06  0.00  0.00  0.96  0.00
  C14                     1.00   0.00  0.00  0.00  0.00  0.99  0.00  0.00  0.61  0.00
  C15                     1.00   0.00  0.00  0.00  0.00  1.00  0.00  0.00  0.00  0.00
  C16                     1.00   0.00  0.00  0.00  0.45  0.55  0.00  0.00  0.34  0.00
  C17                     1.00   0.00  0.00  0.00  0.29  0.71  0.00  0.00  0.99  0.00
  C18                     1.00   0.00  0.00  0.00  0.91  0.09  0.00  0.00  0.99  0.00
  C19                     1.00   0.00  0.00  0.00  1.00  0.00  0.00  0.00  1.00  0.00
  C2                      1.00   0.00  0.00  0.00  0.78  0.22  0.00  0.00  0.98  0.00
  C20                     1.00   0.00  0.00  0.00  0.72  0.28  0.00  0.00  0.99  0.00
  C21                     1.00   0.00  0.00  0.00  0.00  1.00  0.00  0.00  0.00  0.00
  C22                     1.00   0.00  0.00  0.00  0.99  0.01  0.00  0.00  1.00  0.00
  C23                     1.00   0.00  0.00  0.00  0.96  0.04  0.00  0.00  0.98  0.00
  C3                      1.00   0.00  0.00  0.00  0.02  0.97  0.00  0.00  0.10  0.00
  C4                      1.00   0.00  0.00  0.00  0.99  0.01  0.00  0.00  0.99  0.00
  C5                      1.00   0.00  0.00  0.00  0.94  0.06  0.00  0.00  0.99  0.00
  C6                      1.00   0.00  0.00  0.00  0.00  1.00  0.00  0.00  0.00  0.00
  C7                      1.00   0.00  0.00  0.00  0.97  0.03  0.00  0.00  0.99  0.00
  C8                      1.00   0.00  0.00  0.00  0.00  1.00  0.00  0.00  0.00  0.00
  C9                      1.00   0.00  0.00  0.00  1.00  0.00  0.00  0.00  1.00  0.00
  
  
  *************************
  Conduit Surcharge Summary
  *************************
  
  ----------------------------------------------------------------------------
                                                           Hours        Hours 
                         --------- Hours Full --------   Above Full   Capacity
  Conduit                Both Ends  Upstream  Dnstream   Normal Flow   Limited
  ----------------------------------------------------------------------------
  C10                         0.01      0.01     12.42      0.01         0.01
  C13                         0.01      0.01      5.46      0.01         0.01
  C23                         0.01      0.01     16.36      0.01         0.01
  C4                          0.01      0.01     16.08      0.01         0.01
  C7                          0.01      0.01     12.38      0.01         0.01
  

  Analysis begun on:  Sun Jul 17 19:41:16 2022
  Analysis ended on:  Sun Jul 17 19:41:19 2022
  Total elapsed time: 00:00:03