
  EPA STORM WATER MANAGEMENT MODEL - VERSION 5.1 (Build 5.3.0.dev0)
  --------------------------------------------------------------

  
  *********************************************************
  NOTE: The summary statistics displayed in this report are
  based on results found at every computational time step,  
  not just on results from each reporting time step.
  *********************************************************
  
  ****************
  Analysis Options
  ****************
  Flow Units ............... CMS
  Process Models:
    Rainfall/Runoff ........ YES
    RDII ................... NO
    Snowmelt ............... NO
    Groundwater ............ NO
    Flow Routing ........... YES
    Ponding Allowed ........ NO
    Water Quality .......... NO
  Infiltration Method ...... HORTON
  Flow Routing Method ...... DYNWAVE
  Surcharge Method ......... EXTRAN
  Starting Date ............ 07/31/2007 00:50:00
  Ending Date .............. 08/01/2007 02:50:00
  Antecedent Dry Days ...... 0.0
  Report Time Step ......... 00:05:00
  Wet Time Step ............ 00:05:00
  Dry Time Step ............ 01:00:00
  Routing Time Step ........ 30.00 sec
  Variable Time Step ....... YES
  Maximum Trials ........... 8
  Number of Threads ........ 1
  Head Tolerance ........... 0.001500 m
  
  
  **************************        Volume         Depth
  Runoff Quantity Continuity     hectare-m            mm
  **************************     ---------       -------
  Total Precipitation ......         2.652        14.717
  Evaporation Loss .........         0.000         0.000
  Infiltration Loss ........         0.000         0.000
  Surface Runoff ...........         2.622        14.552
  Final Storage ............         0.031         0.174
  Continuity Error (%) .....        -0.059
  
  
  **************************        Volume        Volume
  Flow Routing Continuity        hectare-m      10^6 ltr
  **************************     ---------     ---------
  Dry Weather Inflow .......         0.771         7.714
  Wet Weather Inflow .......         2.622        26.218
  Groundwater Inflow .......         0.000         0.000
  RDII Inflow ..............         0.000         0.000
  External Inflow ..........         0.000         0.000
  External Outflow .........         1.775        17.747
  Flooding Loss ............         0.605         6.049
  Evaporation Loss .........         0.000         0.000
  Exfiltration Loss ........         0.000         0.000
  Initial Stored Volume ....         0.000         0.000
  Final Stored Volume ......         0.776         7.760
  Continuity Error (%) .....         7.000
  
  
  *************************
  Highest Continuity Errors
  *************************
  Node T2 (27.27%)
  Node T4 (14.14%)
  Node T5 (10.12%)
  Node T3 (9.09%)
  Node T6 (7.85%)
  
  
  ***************************
  Time-Step Critical Elements
  ***************************
  Link C15 (52.79%)
  
  
  ********************************
  Highest Flow Instability Indexes
  ********************************
  Link C13 (4)
  Link C15 (2)
  Link C20 (2)
  Link C4 (1)
  Link C18 (1)
  
  
  *************************
  Routing Time Step Summary
  *************************
  Minimum Time Step           :     0.04 sec
  Average Time Step           :    26.87 sec
  Maximum Time Step           :    30.00 sec
  Percent in Steady State     :    15.87
  Average Iterations per Step :     2.01
  Percent Not Converging      :     0.00
  
  
  ***************************
  Subcatchment Runoff Summary
  ***************************
  
  ------------------------------------------------------------------------------------------------------------------------------
                            Total      Total      Total      Total     Imperv       Perv      Total       Total     Peak  Runoff
                           Precip      Runon       Evap      Infil     Runoff     Runoff     Runoff      Runoff   Runoff   Coeff
  Subcatchment                 mm         mm         mm         mm         mm         mm         mm    10^6 ltr      CMS
  ------------------------------------------------------------------------------------------------------------------------------
  SC01                      11.75       0.00       0.00       0.00      11.65       0.00      11.65        3.84     0.22   0.992
  SC010                     11.75       0.00       0.00       0.00      11.61       0.00      11.61        1.36     0.07   0.988
  SC02                      13.13       0.00       0.00       0.00      13.03       0.00      13.03        2.96     0.12   0.992
  SC03                      18.32       0.00       0.00       0.00      18.25       0.00      18.25        3.28     0.13   0.996
  SC04                      13.13       0.00       0.00       0.00      12.90       0.00      12.90        0.89     0.03   0.982
  SC05                      11.75       0.00       0.00       0.00      11.64       0.00      11.64        1.82     0.10   0.991
  SC06                      16.44       0.00       0.00       0.00      16.09       0.00      16.09        5.24     0.20   0.979
  SC07                      13.13       0.00       0.00       0.00      12.90       0.00      12.90        0.61     0.02   0.982
  SC08                      18.32       0.00       0.00       0.00      18.17       0.00      18.17        5.09     0.18   0.992
  SC09                      16.44       0.00       0.00       0.00      16.24       0.00      16.24        1.12     0.05   0.988
  
  
  ******************
  Node Depth Summary
  ******************
  
  ---------------------------------------------------------------------------------
                                 Average  Maximum  Maximum  Time of Max    Reported
                                   Depth    Depth      HGL   Occurrence   Max Depth
  Node                 Type       Meters   Meters   Meters  days hr:min      Meters
  ---------------------------------------------------------------------------------
  CSO10                JUNCTION     0.10     0.22    30.22     0  12:26        0.22
  CSO7                 JUNCTION     0.08     0.14    34.14     0  12:25        0.14
  CSO8                 JUNCTION     0.13     0.26    32.26     0  13:10        0.26
  CSO9                 JUNCTION     0.10     0.21    40.21     0  08:36        0.21
  J1                   JUNCTION     0.06     0.12    34.12     0  12:26        0.12
  J10                  JUNCTION     0.10     0.18    29.18     0  13:15        0.18
  J11                  JUNCTION     0.10     0.19    31.19     0  13:16        0.19
  J12                  JUNCTION     0.54     1.01    27.01     0  18:23        1.01
  J13                  JUNCTION     0.06     0.10    29.10     0  12:25        0.10
  J14                  JUNCTION     0.12     0.15    20.15     0  15:03        0.15
  J15                  JUNCTION     0.16     0.24    15.24     0  12:33        0.24
  J16                  JUNCTION     0.06     0.12    30.12     0  12:26        0.12
  J17                  JUNCTION     0.06     0.08    20.08     0  23:07        0.08
  J18                  JUNCTION     0.05     0.10    29.10     0  12:31        0.10
  J19                  JUNCTION     0.14     0.17     8.17     0  12:45        0.17
  J2                   JUNCTION     0.06     0.08    25.08     0  22:59        0.08
  J3                   JUNCTION     0.11     0.14    18.14     0  23:02        0.14
  J4                   JUNCTION     0.10     0.17    33.17     0  12:28        0.17
  J5                   JUNCTION     0.05     0.09    32.09     0  12:27        0.09
  J6                   JUNCTION     0.06     0.07    25.07     0  23:00        0.07
  J7                   JUNCTION     0.08     0.15    39.15     0  08:40        0.15
  J8                   JUNCTION     0.10     0.18    36.18     0  08:40        0.18
  J9                   JUNCTION     0.09     0.11    29.11     0  23:05        0.11
  Out_to_WWTP          OUTFALL      0.14     0.17     6.17     0  23:48        0.17
  T1                   STORAGE      3.20     5.00    15.00     0  12:44        5.00
  T2                   STORAGE      2.56     5.00    26.00     0  22:34        5.00
  T3                   STORAGE      3.25     5.00    27.00     0  14:54        5.00
  T4                   STORAGE      2.60     4.78    31.78     0  22:59        4.78
  T5                   STORAGE      2.63     4.53    31.53     0  22:57        4.53
  T6                   STORAGE      3.55     5.00    36.00     0  12:00        5.00
  
  
  *******************
  Node Inflow Summary
  *******************
  
  -------------------------------------------------------------------------------------------------
                                  Maximum  Maximum                  Lateral       Total        Flow
                                  Lateral    Total  Time of Max      Inflow      Inflow     Balance
                                   Inflow   Inflow   Occurrence      Volume      Volume       Error
  Node                 Type           CMS      CMS  days hr:min    10^6 ltr    10^6 ltr     Percent
  -------------------------------------------------------------------------------------------------
  CSO10                JUNCTION     0.076    0.076     0  12:30        1.64        1.64      -0.158
  CSO7                 JUNCTION     0.034    0.034     0  12:25        1.19        1.19      -0.088
  CSO8                 JUNCTION     0.189    0.189     0  13:10        5.53        5.56      -0.142
  CSO9                 JUNCTION     0.058    0.058     0  08:35        1.51         1.5      -0.314
  J1                   JUNCTION     0.124    0.124     0  12:25        2.93        2.93      -0.280
  J10                  JUNCTION     0.149    0.327     0  13:13        4.05        9.67      -0.414
  J11                  JUNCTION     0.000    0.189     0  13:11           0        5.57      -0.442
  J12                  JUNCTION     0.000    0.401     0  13:15           0        15.1       4.488
  J13                  JUNCTION     0.141    0.141     0  12:25        3.89        3.88      -0.338
  J14                  JUNCTION     0.000    0.124     0  14:58           0        8.37       0.086
  J15                  JUNCTION     0.000    0.500     0  12:28           0        20.8       0.207
  J16                  JUNCTION     0.242    0.242     0  12:25        4.94        4.94      -0.273
  J17                  JUNCTION     0.000    0.033     0  22:42           0        1.92       0.331
  J18                  JUNCTION     0.000    0.076     0  12:27           0        1.64      -0.460
  J19                  JUNCTION     0.000    0.271     0  12:45           0        17.8       0.066
  J2                   JUNCTION     0.000    0.037     0  22:57           0        2.32       0.215
  J3                   JUNCTION     0.000    0.188     0  23:00           0        12.3       0.292
  J4                   JUNCTION     0.000    0.034     0  12:25           0        1.19      -0.558
  J5                   JUNCTION     0.037    0.070     0  12:25        1.14        2.34      -0.314
  J6                   JUNCTION     0.000    0.027     0  22:59           0        1.64       0.244
  J7                   JUNCTION     0.000    0.058     0  08:36           0        1.51       0.018
  J8                   JUNCTION     0.233    0.290     0  08:40         7.1        8.59      -0.243
  J9                   JUNCTION     0.000    0.075     0  12:01           0        5.43       0.279
  Out_to_WWTP          OUTFALL      0.000    0.271     0  12:46           0        17.7       0.000
  T1                   STORAGE      0.000    0.493     0  12:33           0        20.8       3.486
  T2                   STORAGE      0.000    0.140     0  12:25           0         3.9      37.488
  T3                   STORAGE      0.000    0.354     0  09:16           0        14.5       9.996
  T4                   STORAGE      0.000    0.070     0  12:27           0        2.35      16.462
  T5                   STORAGE      0.000    0.123     0  12:26           0        2.94      11.256
  T6                   STORAGE      0.000    0.289     0  08:41           0        8.61       8.516
  
  
  **********************
  Node Surcharge Summary
  **********************
  
  No nodes were surcharged.
  
  
  *********************
  Node Flooding Summary
  *********************
  
  Flooding refers to all water that overflows a node, whether it ponds or not.
  --------------------------------------------------------------------------
                                                             Total   Maximum
                                 Maximum   Time of Max       Flood    Ponded
                        Hours       Rate    Occurrence      Volume     Depth
  Node                 Flooded       CMS   days hr:min    10^6 ltr    Meters
  --------------------------------------------------------------------------
  T1                     10.80     0.197      0  12:44       1.710     0.000
  T2                      0.55     0.045      0  22:34       0.041     0.000
  T3                      8.55     0.178      0  22:20       2.274     0.000
  T6                     11.32     0.195      0  12:33       2.023     0.000
  
  
  **********************
  Storage Volume Summary
  **********************
  
  --------------------------------------------------------------------------------------------------
                         Average     Avg  Evap Exfil       Maximum     Max    Time of Max    Maximum
                          Volume    Pcnt  Pcnt  Pcnt        Volume    Pcnt     Occurrence    Outflow
  Storage Unit           1000 m3    Full  Loss  Loss       1000 m3    Full    days hr:min        CMS
  --------------------------------------------------------------------------------------------------
  T1                       0.448      64     0     0         0.700     100       0  12:44      0.271
  T2                       0.511      51     0     0         1.000     100       0  22:34      0.033
  T3                       1.690      65     0     0         2.600     100       0  14:54      0.124
  T4                       0.260      52     0     0         0.478      96       0  22:59      0.027
  T5                       0.263      53     0     0         0.453      91       0  22:57      0.037
  T6                       0.426      71     0     0         0.600     100       0  12:00      0.075
  
  
  ***********************
  Outfall Loading Summary
  ***********************
  
  -----------------------------------------------------------
                         Flow       Avg       Max       Total
                         Freq      Flow      Flow      Volume
  Outfall Node           Pcnt       CMS       CMS    10^6 ltr
  -----------------------------------------------------------
  Out_to_WWTP           99.43     0.195     0.271      17.747
  -----------------------------------------------------------
  System                99.43     0.195     0.271      17.747
  
  
  ********************
  Link Flow Summary
  ********************
  
  -----------------------------------------------------------------------------
                                 Maximum  Time of Max   Maximum    Max/    Max/
                                  |Flow|   Occurrence   |Veloc|    Full    Full
  Link                 Type          CMS  days hr:min     m/sec    Flow   Depth
  -----------------------------------------------------------------------------
  C1                   CONDUIT     0.037     0  22:59      0.83    0.01    0.11
  C10                  CONDUIT     0.289     0  08:41      2.35    0.03    0.56
  C11                  CONDUIT     0.188     0  23:02      1.72    0.01    0.09
  C12                  CONDUIT     0.075     0  13:11      0.99    0.01    0.28
  C13                  CONDUIT     0.354     0  09:16      1.10    0.02    0.75
  C14                  CONDUIT     0.271     0  12:46      2.08    0.02    0.09
  C15                  CONDUIT     0.189     0  13:11      2.38    0.60    0.50
  C16                  CONDUIT     0.188     0  13:16      1.31    0.02    0.09
  C17                  CONDUIT     0.325     0  13:15      2.04    0.02    0.29
  C18                  CONDUIT     0.140     0  12:25      1.00    0.01    0.53
  C19                  CONDUIT     0.033     0  23:07      0.61    0.01    0.15
  C2                   CONDUIT     0.027     0  23:00      0.83    0.03    0.17
  C20                  CONDUIT     0.241     0  12:26      1.76    0.01    0.09
  C21                  CONDUIT     0.076     0  12:27      1.51    0.43    0.37
  C22                  CONDUIT     0.076     0  12:31      0.98    0.03    0.21
  C23                  CONDUIT     0.493     0  12:33      0.83    0.05    0.58
  C3                   CONDUIT     0.124     0  15:07      1.80    0.05    0.14
  C4                   CONDUIT     0.123     0  12:26      1.11    0.03    0.56
  C5                   CONDUIT     0.034     0  12:25      1.24    0.58    0.60
  C6                   CONDUIT     0.033     0  12:28      1.14    0.53    0.43
  C7                   CONDUIT     0.070     0  12:27      0.83    0.02    0.55
  C8                   CONDUIT     0.058     0  08:36      1.74    0.74    0.57
  C9                   CONDUIT     0.058     0  08:41      1.03    0.20    0.33
  V1                   ORIFICE     0.271     0  12:45                      1.00
  V2                   ORIFICE     0.033     0  22:42                      0.24
  V3                   ORIFICE     0.124     0  14:58                      0.65
  V4                   ORIFICE     0.027     0  22:59                      0.35
  V5                   ORIFICE     0.037     0  22:57                      1.00
  V6                   ORIFICE     0.075     0  12:01                      0.43
  
  
  ***************************
  Flow Classification Summary
  ***************************
  
  -------------------------------------------------------------------------------------
                      Adjusted    ---------- Fraction of Time in Flow Class ---------- 
                       /Actual         Up    Down  Sub   Sup   Up    Down  Norm  Inlet 
  Conduit               Length    Dry  Dry   Dry   Crit  Crit  Crit  Crit  Ltd   Ctrl  
  -------------------------------------------------------------------------------------
  C1                      1.00   0.00  0.00  0.00  0.96  0.04  0.00  0.00  0.97  0.00
  C10                     1.00   0.00  0.00  0.00  0.96  0.04  0.00  0.00  0.98  0.00
  C11                     1.00   0.00  0.00  0.00  0.03  0.97  0.00  0.00  1.00  0.00
  C12                     1.00   0.00  0.00  0.00  0.90  0.10  0.00  0.00  0.97  0.00
  C13                     1.00   0.00  0.00  0.00  0.93  0.07  0.00  0.00  0.43  0.00
  C14                     1.00   0.00  0.00  0.00  0.00  0.99  0.00  0.00  0.33  0.00
  C15                     1.00   0.02  0.00  0.00  0.00  0.98  0.00  0.00  0.00  0.00
  C16                     1.00   0.00  0.02  0.00  0.16  0.82  0.00  0.00  0.12  0.00
  C17                     1.00   0.00  0.00  0.00  0.56  0.44  0.00  0.00  0.99  0.00
  C18                     1.00   0.00  0.00  0.00  0.89  0.11  0.00  0.00  0.98  0.00
  C19                     1.00   0.00  0.00  0.00  1.00  0.00  0.00  0.00  1.00  0.00
  C2                      1.00   0.00  0.00  0.00  0.97  0.03  0.00  0.00  1.00  0.00
  C20                     1.00   0.00  0.00  0.00  0.70  0.30  0.00  0.00  0.99  0.00
  C21                     1.00   0.00  0.00  0.00  0.00  1.00  0.00  0.00  0.00  0.00
  C22                     1.00   0.00  0.00  0.00  1.00  0.00  0.00  0.00  1.00  0.00
  C23                     1.00   0.00  0.00  0.00  0.89  0.11  0.00  0.00  0.96  0.00
  C3                      1.00   0.00  0.00  0.00  0.03  0.97  0.00  0.00  0.04  0.00
  C4                      1.00   0.00  0.00  0.00  0.88  0.12  0.00  0.00  0.98  0.00
  C5                      1.00   0.00  0.00  0.00  0.93  0.07  0.00  0.00  0.99  0.00
  C6                      1.00   0.00  0.00  0.00  0.01  0.99  0.00  0.00  0.00  0.00
  C7                      1.00   0.00  0.00  0.00  0.89  0.11  0.00  0.00  0.97  0.00
  C8                      1.00   0.00  0.00  0.00  0.04  0.96  0.00  0.00  0.00  0.00
  C9                      1.00   0.00  0.00  0.00  1.00  0.00  0.00  0.00  1.00  0.00
  
  
  *************************
  Conduit Surcharge Summary
  *************************
  
  ----------------------------------------------------------------------------
                                                           Hours        Hours 
                         --------- Hours Full --------   Above Full   Capacity
  Conduit                Both Ends  Upstream  Dnstream   Normal Flow   Limited
  ----------------------------------------------------------------------------
  C10                         0.01      0.01     17.75      0.01         0.01
  C13                         0.01      0.01     16.77      0.01         0.01
  C18                         0.01      0.01     14.36      0.01         0.01
  C23                         0.01      0.01     17.17      0.01         0.01
  C4                          0.01      0.01     17.47      0.01         0.01
  C7                          0.01      0.01     17.08      0.01         0.01
  

  Analysis begun on:  Sun Jul 17 20:06:09 2022
  Analysis ended on:  Sun Jul 17 20:06:09 2022
  Total elapsed time: < 1 sec