
  EPA STORM WATER MANAGEMENT MODEL - VERSION 5.1 (Build 5.3.0.dev0)
  --------------------------------------------------------------

  
  *********************************************************
  NOTE: The summary statistics displayed in this report are
  based on results found at every computational time step,  
  not just on results from each reporting time step.
  *********************************************************
  
  ****************
  Analysis Options
  ****************
  Flow Units ............... CMS
  Process Models:
    Rainfall/Runoff ........ YES
    RDII ................... NO
    Snowmelt ............... NO
    Groundwater ............ NO
    Flow Routing ........... YES
    Ponding Allowed ........ NO
    Water Quality .......... NO
  Infiltration Method ...... HORTON
  Flow Routing Method ...... DYNWAVE
  Surcharge Method ......... EXTRAN
  Starting Date ............ 12/23/2008 21:30:00
  Ending Date .............. 12/24/2008 04:30:00
  Antecedent Dry Days ...... 0.0
  Report Time Step ......... 00:05:00
  Wet Time Step ............ 00:05:00
  Dry Time Step ............ 01:00:00
  Routing Time Step ........ 30.00 sec
  Variable Time Step ....... YES
  Maximum Trials ........... 8
  Number of Threads ........ 1
  Head Tolerance ........... 0.001500 m
  
  
  **************************        Volume         Depth
  Runoff Quantity Continuity     hectare-m            mm
  **************************     ---------       -------
  Total Precipitation ......         0.990         5.493
  Evaporation Loss .........         0.000         0.000
  Infiltration Loss ........         0.000         0.000
  Surface Runoff ...........         0.956         5.307
  Final Storage ............         0.037         0.203
  Continuity Error (%) .....        -0.307
  
  
  **************************        Volume        Volume
  Flow Routing Continuity        hectare-m      10^6 ltr
  **************************     ---------     ---------
  Dry Weather Inflow .......         0.061         0.611
  Wet Weather Inflow .......         0.956         9.557
  Groundwater Inflow .......         0.000         0.000
  RDII Inflow ..............         0.000         0.000
  External Inflow ..........         0.000         0.000
  External Outflow .........         0.350         3.497
  Flooding Loss ............         0.004         0.039
  Evaporation Loss .........         0.000         0.000
  Exfiltration Loss ........         0.000         0.000
  Initial Stored Volume ....         0.000         0.000
  Final Stored Volume ......         0.555         5.554
  Continuity Error (%) .....        10.594
  
  
  *************************
  Highest Continuity Errors
  *************************
  Node T3 (24.45%)
  Node T2 (21.45%)
  Node T5 (18.25%)
  Node T6 (17.86%)
  Node T4 (14.94%)
  
  
  ***************************
  Time-Step Critical Elements
  ***************************
  Link C15 (50.95%)
  
  
  ********************************
  Highest Flow Instability Indexes
  ********************************
  Link V3 (6)
  Link C3 (6)
  Link C13 (5)
  Link C11 (5)
  Link C2 (4)
  
  
  *************************
  Routing Time Step Summary
  *************************
  Minimum Time Step           :     0.06 sec
  Average Time Step           :    25.28 sec
  Maximum Time Step           :    30.00 sec
  Percent in Steady State     :     1.07
  Average Iterations per Step :     2.15
  Percent Not Converging      :     0.20
  
  
  ***************************
  Subcatchment Runoff Summary
  ***************************
  
  ------------------------------------------------------------------------------------------------------------------------------
                            Total      Total      Total      Total     Imperv       Perv      Total       Total     Peak  Runoff
                           Precip      Runon       Evap      Infil     Runoff     Runoff     Runoff      Runoff   Runoff   Coeff
  Subcatchment                 mm         mm         mm         mm         mm         mm         mm    10^6 ltr      CMS
  ------------------------------------------------------------------------------------------------------------------------------
  SC01                       3.35       0.00       0.00       0.00       3.26       0.00       3.26        1.07     0.23   0.972
  SC010                      3.35       0.00       0.00       0.00       3.21       0.00       3.21        0.38     0.07   0.959
  SC02                       4.58       0.00       0.00       0.00       4.46       0.00       4.46        1.01     0.19   0.974
  SC03                       7.30       0.00       0.00       0.00       7.23       0.00       7.23        1.30     0.27   0.990
  SC04                       4.58       0.00       0.00       0.00       4.29       0.00       4.29        0.30     0.04   0.936
  SC05                       3.35       0.00       0.00       0.00       3.24       0.00       3.24        0.51     0.11   0.969
  SC06                       7.46       0.00       0.00       0.00       7.06       0.00       7.06        2.30     0.37   0.946
  SC07                       4.58       0.00       0.00       0.00       4.29       0.00       4.29        0.20     0.03   0.937
  SC08                       7.30       0.00       0.00       0.00       7.12       0.00       7.12        1.99     0.35   0.975
  SC09                       7.46       0.00       0.00       0.00       7.24       0.00       7.24        0.50     0.09   0.971
  
  
  ******************
  Node Depth Summary
  ******************
  
  ---------------------------------------------------------------------------------
                                 Average  Maximum  Maximum  Time of Max    Reported
                                   Depth    Depth      HGL   Occurrence   Max Depth
  Node                 Type       Meters   Meters   Meters  days hr:min      Meters
  ---------------------------------------------------------------------------------
  CSO10                JUNCTION     0.09     0.22    30.22     0  02:30        0.22
  CSO7                 JUNCTION     0.07     0.13    34.13     0  02:25        0.13
  CSO8                 JUNCTION     0.17     0.74    32.74     0  04:00        0.74
  CSO9                 JUNCTION     0.13     0.64    40.64     0  04:00        0.64
  J1                   JUNCTION     0.05     0.11    34.11     0  02:30        0.11
  J10                  JUNCTION     0.11     0.24    29.24     0  04:00        0.24
  J11                  JUNCTION     0.12     0.25    31.25     0  04:00        0.25
  J12                  JUNCTION     0.21     0.46    26.46     0  07:00        0.46
  J13                  JUNCTION     0.06     0.12    29.12     0  02:21        0.12
  J14                  JUNCTION     0.10     0.19    20.19     0  05:12        0.18
  J15                  JUNCTION     0.14     0.20    15.20     0  02:33        0.20
  J16                  JUNCTION     0.05     0.12    30.12     0  02:30        0.12
  J17                  JUNCTION     0.06     0.11    20.11     0  05:07        0.11
  J18                  JUNCTION     0.05     0.10    29.10     0  02:31        0.10
  J19                  JUNCTION     0.12     0.15     8.15     0  04:30        0.15
  J2                   JUNCTION     0.05     0.06    25.06     0  04:38        0.06
  J3                   JUNCTION     0.09     0.14    18.14     0  05:22        0.14
  J4                   JUNCTION     0.09     0.15    33.15     0  02:30        0.15
  J5                   JUNCTION     0.05     0.09    32.09     0  02:29        0.09
  J6                   JUNCTION     0.05     0.09    25.09     0  05:28        0.09
  J7                   JUNCTION     0.09     0.19    39.19     0  04:01        0.19
  J8                   JUNCTION     0.11     0.22    36.22     0  04:01        0.22
  J9                   JUNCTION     0.10     0.16    29.16     0  04:38        0.16
  Out_to_WWTP          OUTFALL      0.12     0.15     6.15     0  04:30        0.15
  T1                   STORAGE      1.72     2.68    12.68     0  04:30        2.68
  T2                   STORAGE      0.92     1.70    22.70     0  05:00        1.70
  T3                   STORAGE      2.10     4.46    26.46     0  06:57        4.45
  T4                   STORAGE      0.78     1.63    28.63     0  05:17        1.63
  T5                   STORAGE      0.94     1.43    28.43     0  04:36        1.43
  T6                   STORAGE      2.42     5.00    36.00     0  04:23        5.00
  
  
  *******************
  Node Inflow Summary
  *******************
  
  -------------------------------------------------------------------------------------------------
                                  Maximum  Maximum                  Lateral       Total        Flow
                                  Lateral    Total  Time of Max      Inflow      Inflow     Balance
                                   Inflow   Inflow   Occurrence      Volume      Volume       Error
  Node                 Type           CMS      CMS  days hr:min    10^6 ltr    10^6 ltr     Percent
  -------------------------------------------------------------------------------------------------
  CSO10                JUNCTION     0.073    0.073     0  02:30         0.4         0.4       0.061
  CSO7                 JUNCTION     0.030    0.030     0  02:25       0.252       0.252       0.126
  CSO8                 JUNCTION     0.350    0.350     0  04:00        1.99        1.99      -0.010
  CSO9                 JUNCTION     0.089    0.089     0  04:00       0.532       0.532       0.036
  J1                   JUNCTION     0.108    0.108     0  02:30         0.6         0.6      -0.101
  J10                  JUNCTION     0.267    0.599     0  03:59        1.36        3.35      -0.030
  J11                  JUNCTION     0.000    0.350     0  04:00           0        1.99       0.182
  J12                  JUNCTION     0.000    0.743     0  04:00           0        5.39       6.047
  J13                  JUNCTION     0.191    0.191     0  02:20        1.09        1.09      -0.471
  J14                  JUNCTION     0.000    0.176     0  05:17           0        1.51       0.275
  J15                  JUNCTION     0.000    0.387     0  02:31           0        4.42       2.067
  J16                  JUNCTION     0.234    0.234     0  02:30        1.17        1.17      -0.038
  J17                  JUNCTION     0.000    0.081     0  05:00           0       0.625       1.362
  J18                  JUNCTION     0.000    0.072     0  02:30           0         0.4       0.189
  J19                  JUNCTION     0.000    0.197     0  04:30           0        3.51       0.283
  J2                   JUNCTION     0.000    0.021     0  04:36           0       0.391       0.776
  J3                   JUNCTION     0.000    0.213     0  05:13           0        2.27       1.313
  J4                   JUNCTION     0.000    0.030     0  02:26           0       0.252       1.028
  J5                   JUNCTION     0.042    0.070     0  02:27       0.317       0.566       0.080
  J6                   JUNCTION     0.000    0.045     0  05:22           0       0.379       1.247
  J7                   JUNCTION     0.000    0.089     0  04:00           0       0.532       0.440
  J8                   JUNCTION     0.376    0.462     0  04:00        2.45        2.98       0.028
  J9                   JUNCTION     0.000    0.175     0  04:23           0        2.03       0.616
  Out_to_WWTP          OUTFALL      0.000    0.197     0  04:30           0         3.5       0.000
  T1                   STORAGE      0.000    0.360     0  02:33           0        4.33      11.880
  T2                   STORAGE      0.000    0.190     0  02:21           0         1.1      27.307
  T3                   STORAGE      0.000    0.717     0  04:01           0        5.09      32.362
  T4                   STORAGE      0.000    0.070     0  02:29           0       0.566      17.557
  T5                   STORAGE      0.000    0.107     0  02:30           0         0.6      22.324
  T6                   STORAGE      0.000    0.458     0  04:01           0        2.98      21.745
  
  
  **********************
  Node Surcharge Summary
  **********************
  
  Surcharging occurs when water rises above the top of the highest conduit.
  ---------------------------------------------------------------------
                                               Max. Height   Min. Depth
                                   Hours       Above Crown    Below Rim
  Node                 Type      Surcharged         Meters       Meters
  ---------------------------------------------------------------------
  CSO8                 JUNCTION        0.15          0.286        1.261
  CSO9                 JUNCTION        0.23          0.323        1.359
  
  
  *********************
  Node Flooding Summary
  *********************
  
  Flooding refers to all water that overflows a node, whether it ponds or not.
  --------------------------------------------------------------------------
                                                             Total   Maximum
                                 Maximum   Time of Max       Flood    Ponded
                        Hours       Rate    Occurrence      Volume     Depth
  Node                 Flooded       CMS   days hr:min    10^6 ltr    Meters
  --------------------------------------------------------------------------
  T6                      0.25     0.096      0  04:23       0.039     0.000
  
  
  **********************
  Storage Volume Summary
  **********************
  
  --------------------------------------------------------------------------------------------------
                         Average     Avg  Evap Exfil       Maximum     Max    Time of Max    Maximum
                          Volume    Pcnt  Pcnt  Pcnt        Volume    Pcnt     Occurrence    Outflow
  Storage Unit           1000 m3    Full  Loss  Loss       1000 m3    Full    days hr:min        CMS
  --------------------------------------------------------------------------------------------------
  T1                       0.240      34     0     0         0.375      54       0  04:30      0.197
  T2                       0.184      18     0     0         0.340      34       0  05:00      0.081
  T3                       1.091      42     0     0         2.321      89       0  06:57      0.176
  T4                       0.078      16     0     0         0.163      33       0  05:17      0.045
  T5                       0.094      19     0     0         0.143      29       0  04:36      0.021
  T6                       0.291      48     0     0         0.600     100       0  04:23      0.175
  
  
  ***********************
  Outfall Loading Summary
  ***********************
  
  -----------------------------------------------------------
                         Flow       Avg       Max       Total
                         Freq      Flow      Flow      Volume
  Outfall Node           Pcnt       CMS       CMS    10^6 ltr
  -----------------------------------------------------------
  Out_to_WWTP           98.69     0.145     0.197       3.497
  -----------------------------------------------------------
  System                98.69     0.145     0.197       3.497
  
  
  ********************
  Link Flow Summary
  ********************
  
  -----------------------------------------------------------------------------
                                 Maximum  Time of Max   Maximum    Max/    Max/
                                  |Flow|   Occurrence   |Veloc|    Full    Full
  Link                 Type          CMS  days hr:min     m/sec    Flow   Depth
  -----------------------------------------------------------------------------
  C1                   CONDUIT     0.021     0  04:38      0.84    0.01    0.10
  C10                  CONDUIT     0.458     0  04:01      1.68    0.05    0.57
  C11                  CONDUIT     0.206     0  05:22      1.92    0.01    0.08
  C12                  CONDUIT     0.175     0  04:38      1.38    0.01    0.15
  C13                  CONDUIT     0.717     0  04:01      1.76    0.04    0.61
  C14                  CONDUIT     0.197     0  04:30      1.89    0.01    0.07
  C15                  CONDUIT     0.350     0  04:00      2.66    1.11    0.78
  C16                  CONDUIT     0.347     0  04:00      1.59    0.03    0.12
  C17                  CONDUIT     0.597     0  04:00      2.56    0.03    0.13
  C18                  CONDUIT     0.190     0  02:21      3.03    0.01    0.44
  C19                  CONDUIT     0.080     0  05:07      1.37    0.03    0.14
  C2                   CONDUIT     0.044     0  05:28      1.27    0.05    0.19
  C20                  CONDUIT     0.231     0  02:30      2.88    0.01    0.08
  C21                  CONDUIT     0.072     0  02:30      1.79    0.41    0.36
  C22                  CONDUIT     0.071     0  02:32      1.08    0.03    0.19
  C23                  CONDUIT     0.360     0  02:33      1.49    0.04    0.56
  C3                   CONDUIT     0.178     0  05:13      2.29    0.07    0.16
  C4                   CONDUIT     0.107     0  02:30      5.48    0.03    0.55
  C5                   CONDUIT     0.030     0  02:26      1.24    0.51    0.55
  C6                   CONDUIT     0.029     0  02:30      1.07    0.46    0.41
  C7                   CONDUIT     0.070     0  02:29      1.22    0.02    0.54
  C8                   CONDUIT     0.089     0  04:00      2.12    1.13    0.79
  C9                   CONDUIT     0.087     0  04:01      1.16    0.30    0.41
  V1                   ORIFICE     0.197     0  04:30                      1.00
  V2                   ORIFICE     0.081     0  05:00                      1.00
  V3                   ORIFICE     0.176     0  05:17                      1.00
  V4                   ORIFICE     0.045     0  05:22                      1.00
  V5                   ORIFICE     0.021     0  04:36                      1.00
  V6                   ORIFICE     0.175     0  04:23                      1.00
  
  
  ***************************
  Flow Classification Summary
  ***************************
  
  -------------------------------------------------------------------------------------
                      Adjusted    ---------- Fraction of Time in Flow Class ---------- 
                       /Actual         Up    Down  Sub   Sup   Up    Down  Norm  Inlet 
  Conduit               Length    Dry  Dry   Dry   Crit  Crit  Crit  Crit  Ltd   Ctrl  
  -------------------------------------------------------------------------------------
  C1                      1.00   0.00  0.00  0.00  0.54  0.46  0.00  0.00  0.94  0.00
  C10                     1.00   0.00  0.00  0.00  0.83  0.17  0.00  0.00  0.96  0.00
  C11                     1.00   0.00  0.00  0.00  0.33  0.66  0.00  0.00  1.00  0.00
  C12                     1.00   0.00  0.00  0.00  0.92  0.08  0.00  0.00  1.00  0.00
  C13                     1.00   0.00  0.00  0.00  0.91  0.09  0.00  0.00  0.61  0.00
  C14                     1.00   0.01  0.00  0.00  0.01  0.99  0.00  0.00  0.74  0.00
  C15                     1.00   0.01  0.00  0.00  0.00  0.99  0.00  0.00  0.00  0.00
  C16                     1.00   0.00  0.01  0.00  0.30  0.68  0.00  0.00  0.16  0.00
  C17                     1.00   0.00  0.00  0.00  0.27  0.73  0.00  0.00  0.93  0.00
  C18                     1.00   0.00  0.00  0.00  0.86  0.14  0.00  0.00  0.96  0.00
  C19                     1.00   0.00  0.00  0.00  0.87  0.13  0.00  0.00  1.00  0.00
  C2                      1.00   0.00  0.00  0.00  0.51  0.48  0.00  0.00  0.97  0.00
  C20                     1.00   0.00  0.00  0.00  0.57  0.43  0.00  0.00  0.98  0.00
  C21                     1.00   0.00  0.00  0.00  0.01  0.99  0.00  0.00  0.00  0.00
  C22                     1.00   0.00  0.00  0.00  0.92  0.08  0.00  0.00  1.00  0.00
  C23                     1.00   0.00  0.00  0.00  0.86  0.14  0.00  0.00  0.92  0.00
  C3                      1.00   0.00  0.01  0.00  0.04  0.95  0.00  0.00  0.31  0.00
  C4                      1.00   0.00  0.00  0.00  0.92  0.08  0.00  0.00  0.97  0.00
  C5                      1.00   0.00  0.00  0.00  0.74  0.26  0.00  0.00  0.97  0.00
  C6                      1.00   0.00  0.00  0.00  0.01  0.99  0.00  0.00  0.00  0.00
  C7                      1.00   0.00  0.00  0.00  0.93  0.07  0.00  0.00  0.94  0.00
  C8                      1.00   0.00  0.00  0.00  0.26  0.74  0.00  0.00  0.01  0.00
  C9                      1.00   0.00  0.00  0.00  1.00  0.00  0.00  0.00  1.00  0.00
  
  
  *************************
  Conduit Surcharge Summary
  *************************
  
  ----------------------------------------------------------------------------
                                                           Hours        Hours 
                         --------- Hours Full --------   Above Full   Capacity
  Conduit                Both Ends  Upstream  Dnstream   Normal Flow   Limited
  ----------------------------------------------------------------------------
  C10                         0.01      0.01      4.28      0.01         0.01
  C13                         0.01      0.01      3.28      0.01         0.01
  C15                         0.01      0.15      0.01      0.20         0.01
  C23                         0.01      0.01      4.32      0.01         0.01
  C4                          0.01      0.01      4.35      0.01         0.01
  C7                          0.01      0.01      2.91      0.01         0.01
  C8                          0.01      0.23      0.01      0.23         0.01
  

  Analysis begun on:  Sun Jul 17 21:15:53 2022
  Analysis ended on:  Sun Jul 17 21:15:53 2022
  Total elapsed time: < 1 sec