
  EPA STORM WATER MANAGEMENT MODEL - VERSION 5.1 (Build 5.3.0.dev0)
  --------------------------------------------------------------

  
  *********************************************************
  NOTE: The summary statistics displayed in this report are
  based on results found at every computational time step,  
  not just on results from each reporting time step.
  *********************************************************
  
  ****************
  Analysis Options
  ****************
  Flow Units ............... CMS
  Process Models:
    Rainfall/Runoff ........ YES
    RDII ................... NO
    Snowmelt ............... NO
    Groundwater ............ NO
    Flow Routing ........... YES
    Ponding Allowed ........ NO
    Water Quality .......... NO
  Infiltration Method ...... HORTON
  Flow Routing Method ...... DYNWAVE
  Surcharge Method ......... EXTRAN
  Starting Date ............ 08/30/2007 21:55:00
  Ending Date .............. 08/31/2007 10:35:00
  Antecedent Dry Days ...... 0.0
  Report Time Step ......... 00:05:00
  Wet Time Step ............ 00:05:00
  Dry Time Step ............ 01:00:00
  Routing Time Step ........ 30.00 sec
  Variable Time Step ....... YES
  Maximum Trials ........... 8
  Number of Threads ........ 1
  Head Tolerance ........... 0.001500 m
  
  
  **************************        Volume         Depth
  Runoff Quantity Continuity     hectare-m            mm
  **************************     ---------       -------
  Total Precipitation ......         1.910        10.597
  Evaporation Loss .........         0.000         0.000
  Infiltration Loss ........         0.000         0.000
  Surface Runoff ...........         1.887        10.469
  Final Storage ............         0.025         0.140
  Continuity Error (%) .....        -0.114
  
  
  **************************        Volume        Volume
  Flow Routing Continuity        hectare-m      10^6 ltr
  **************************     ---------     ---------
  Dry Weather Inflow .......         0.285         2.848
  Wet Weather Inflow .......         1.887        18.867
  Groundwater Inflow .......         0.000         0.000
  RDII Inflow ..............         0.000         0.000
  External Inflow ..........         0.000         0.000
  External Outflow .........         0.964         9.642
  Flooding Loss ............         0.261         2.608
  Evaporation Loss .........         0.000         0.000
  Exfiltration Loss ........         0.000         0.000
  Initial Stored Volume ....         0.000         0.000
  Final Stored Volume ......         0.721         7.211
  Continuity Error (%) .....        10.376
  
  
  *************************
  Highest Continuity Errors
  *************************
  Node T2 (29.08%)
  Node T5 (17.63%)
  Node T4 (17.53%)
  Node T3 (16.24%)
  Node T6 (13.56%)
  
  
  ***************************
  Time-Step Critical Elements
  ***************************
  Link C15 (53.45%)
  
  
  ********************************
  Highest Flow Instability Indexes
  ********************************
  Link C13 (8)
  Link C20 (3)
  Link C4 (3)
  Link C21 (2)
  Link C18 (2)
  
  
  *************************
  Routing Time Step Summary
  *************************
  Minimum Time Step           :     0.02 sec
  Average Time Step           :    25.93 sec
  Maximum Time Step           :    30.00 sec
  Percent in Steady State     :     2.70
  Average Iterations per Step :     2.22
  Percent Not Converging      :     0.12
  
  
  ***************************
  Subcatchment Runoff Summary
  ***************************
  
  ------------------------------------------------------------------------------------------------------------------------------
                            Total      Total      Total      Total     Imperv       Perv      Total       Total     Peak  Runoff
                           Precip      Runon       Evap      Infil     Runoff     Runoff     Runoff      Runoff   Runoff   Coeff
  Subcatchment                 mm         mm         mm         mm         mm         mm         mm    10^6 ltr      CMS
  ------------------------------------------------------------------------------------------------------------------------------
  SC01                      10.28       0.00       0.00       0.00      10.20       0.00      10.20        3.37     0.52   0.993
  SC010                     10.28       0.00       0.00       0.00      10.18       0.00      10.18        1.20     0.17   0.990
  SC02                       9.80       0.00       0.00       0.00       9.72       0.00       9.72        2.21     0.37   0.992
  SC03                      10.87       0.00       0.00       0.00      10.81       0.00      10.81        1.95     0.32   0.995
  SC04                       9.80       0.00       0.00       0.00       9.64       0.00       9.64        0.66     0.09   0.983
  SC05                      10.28       0.00       0.00       0.00      10.20       0.00      10.20        1.59     0.24   0.992
  SC06                      11.46       0.00       0.00       0.00      11.19       0.00      11.19        3.64     0.41   0.976
  SC07                       9.80       0.00       0.00       0.00       9.64       0.00       9.64        0.46     0.06   0.983
  SC08                      10.87       0.00       0.00       0.00      10.75       0.00      10.75        3.01     0.42   0.989
  SC09                      11.46       0.00       0.00       0.00      11.29       0.00      11.29        0.78     0.10   0.985
  
  
  ******************
  Node Depth Summary
  ******************
  
  ---------------------------------------------------------------------------------
                                 Average  Maximum  Maximum  Time of Max    Reported
                                   Depth    Depth      HGL   Occurrence   Max Depth
  Node                 Type       Meters   Meters   Meters  days hr:min      Meters
  ---------------------------------------------------------------------------------
  CSO10                JUNCTION     0.13     0.38    30.38     0  04:42        0.38
  CSO7                 JUNCTION     0.09     0.22    34.22     0  04:46        0.22
  CSO8                 JUNCTION     0.19     1.32    33.32     0  04:45        1.32
  CSO9                 JUNCTION     0.15     0.99    40.99     0  04:40        0.99
  J1                   JUNCTION     0.07     0.16    34.16     0  04:41        0.16
  J10                  JUNCTION     0.11     0.26    29.26     0  04:45        0.26
  J11                  JUNCTION     0.11     0.28    31.28     0  04:46        0.27
  J12                  JUNCTION     0.33     0.64    26.64     0  09:39        0.63
  J13                  JUNCTION     0.07     0.16    29.16     0  04:45        0.16
  J14                  JUNCTION     0.12     0.15    20.15     0  09:53        0.15
  J15                  JUNCTION     0.17     0.30    15.30     0  04:46        0.30
  J16                  JUNCTION     0.07     0.18    30.18     0  04:41        0.18
  J17                  JUNCTION     0.06     0.07    20.07     0  08:42        0.07
  J18                  JUNCTION     0.06     0.15    29.15     0  04:45        0.15
  J19                  JUNCTION     0.15     0.17     8.17     0  04:47        0.17
  J2                   JUNCTION     0.06     0.08    25.08     0  06:00        0.08
  J3                   JUNCTION     0.11     0.13    18.13     0  09:09        0.13
  J4                   JUNCTION     0.11     0.26    33.26     0  04:55        0.26
  J5                   JUNCTION     0.06     0.13    32.13     0  04:51        0.13
  J6                   JUNCTION     0.06     0.07    25.07     0  07:14        0.07
  J7                   JUNCTION     0.09     0.20    39.20     0  04:41        0.20
  J8                   JUNCTION     0.11     0.23    36.23     0  04:41        0.23
  J9                   JUNCTION     0.09     0.11    29.11     0  06:02        0.11
  Out_to_WWTP          OUTFALL      0.15     0.17     6.17     0  09:25        0.17
  T1                   STORAGE      3.56     5.00    15.00     0  04:46        5.00
  T2                   STORAGE      2.73     4.25    25.25     0  08:40        4.25
  T3                   STORAGE      3.01     4.64    26.64     0  09:43        4.64
  T4                   STORAGE      2.48     4.07    31.07     0  07:13        4.07
  T5                   STORAGE      3.01     4.71    31.71     0  05:58        4.71
  T6                   STORAGE      3.48     5.00    36.00     0  04:43        5.00
  
  
  *******************
  Node Inflow Summary
  *******************
  
  -------------------------------------------------------------------------------------------------
                                  Maximum  Maximum                  Lateral       Total        Flow
                                  Lateral    Total  Time of Max      Inflow      Inflow     Balance
                                   Inflow   Inflow   Occurrence      Volume      Volume       Error
  Node                 Type           CMS      CMS  days hr:min    10^6 ltr    10^6 ltr     Percent
  -------------------------------------------------------------------------------------------------
  CSO10                JUNCTION     0.167    0.167     0  04:40         1.3         1.3       0.044
  CSO7                 JUNCTION     0.061    0.061     0  04:45        0.67        0.67       0.123
  CSO8                 JUNCTION     0.417    0.417     0  04:45        3.18        3.18       0.005
  CSO9                 JUNCTION     0.100    0.100     0  04:40       0.923       0.923       0.063
  J1                   JUNCTION     0.242    0.242     0  04:40           2           2       0.070
  J10                  JUNCTION     0.324    0.707     0  04:38        2.23         5.4       0.019
  J11                  JUNCTION     0.000    0.417     0  04:45           0        3.18       0.157
  J12                  JUNCTION     0.000    0.778     0  04:45           0        8.11       5.028
  J13                  JUNCTION     0.376    0.376     0  04:45        2.55        2.56      -0.049
  J14                  JUNCTION     0.000    0.119     0  09:43           0        4.04       0.176
  J15                  JUNCTION     0.000    0.836     0  04:42           0        12.2       0.716
  J16                  JUNCTION     0.524    0.524     0  04:40        3.77        3.78       0.024
  J17                  JUNCTION     0.000    0.031     0  08:40           0        1.05       0.556
  J18                  JUNCTION     0.000    0.167     0  04:42           0         1.3       0.097
  J19                  JUNCTION     0.000    0.271     0  04:46           0        9.65       0.122
  J2                   JUNCTION     0.000    0.038     0  05:58           0         1.3       0.386
  J3                   JUNCTION     0.000    0.181     0  09:05           0        6.16       0.587
  J4                   JUNCTION     0.000    0.061     0  04:46           0        0.67       0.607
  J5                   JUNCTION     0.087    0.144     0  04:50       0.758        1.42       0.146
  J6                   JUNCTION     0.000    0.025     0  07:13           0       0.837       0.437
  J7                   JUNCTION     0.000    0.100     0  04:40           0       0.922       0.330
  J8                   JUNCTION     0.415    0.510     0  04:40        4.33        5.25       0.134
  J9                   JUNCTION     0.000    0.075     0  04:43           0        2.65       0.636
  Out_to_WWTP          OUTFALL      0.000    0.271     0  04:48           0        9.64       0.000
  T1                   STORAGE      0.000    0.817     0  04:46           0        12.2       6.012
  T2                   STORAGE      0.000    0.373     0  04:45           0        2.56      41.010
  T3                   STORAGE      0.000    0.776     0  04:47           0        7.72      19.384
  T4                   STORAGE      0.000    0.144     0  04:51           0        1.42      21.263
  T5                   STORAGE      0.000    0.240     0  04:41           0           2      21.397
  T6                   STORAGE      0.000    0.504     0  04:41           0        5.24      15.687
  
  
  **********************
  Node Surcharge Summary
  **********************
  
  Surcharging occurs when water rises above the top of the highest conduit.
  ---------------------------------------------------------------------
                                               Max. Height   Min. Depth
                                   Hours       Above Crown    Below Rim
  Node                 Type      Surcharged         Meters       Meters
  ---------------------------------------------------------------------
  CSO8                 JUNCTION        0.43          0.872        0.675
  CSO9                 JUNCTION        0.53          0.669        1.013
  
  
  *********************
  Node Flooding Summary
  *********************
  
  Flooding refers to all water that overflows a node, whether it ponds or not.
  --------------------------------------------------------------------------
                                                             Total   Maximum
                                 Maximum   Time of Max       Flood    Ponded
                        Hours       Rate    Occurrence      Volume     Depth
  Node                 Flooded       CMS   days hr:min    10^6 ltr    Meters
  --------------------------------------------------------------------------
  T1                      3.73     0.547      0  04:46       1.229     0.000
  T6                      3.30     0.427      0  04:57       1.375     0.000
  
  
  **********************
  Storage Volume Summary
  **********************
  
  --------------------------------------------------------------------------------------------------
                         Average     Avg  Evap Exfil       Maximum     Max    Time of Max    Maximum
                          Volume    Pcnt  Pcnt  Pcnt        Volume    Pcnt     Occurrence    Outflow
  Storage Unit           1000 m3    Full  Loss  Loss       1000 m3    Full    days hr:min        CMS
  --------------------------------------------------------------------------------------------------
  T1                       0.498      71     0     0         0.700     100       0  04:46      0.271
  T2                       0.546      55     0     0         0.850      85       0  08:40      0.031
  T3                       1.567      60     0     0         2.412      93       0  09:43      0.163
  T4                       0.248      50     0     0         0.407      81       0  07:13      0.025
  T5                       0.301      60     0     0         0.471      94       0  05:58      0.038
  T6                       0.418      70     0     0         0.600     100       0  04:43      0.075
  
  
  ***********************
  Outfall Loading Summary
  ***********************
  
  -----------------------------------------------------------
                         Flow       Avg       Max       Total
                         Freq      Flow      Flow      Volume
  Outfall Node           Pcnt       CMS       CMS    10^6 ltr
  -----------------------------------------------------------
  Out_to_WWTP           99.26     0.214     0.271       9.642
  -----------------------------------------------------------
  System                99.26     0.214     0.271       9.642
  
  
  ********************
  Link Flow Summary
  ********************
  
  -----------------------------------------------------------------------------
                                 Maximum  Time of Max   Maximum    Max/    Max/
                                  |Flow|   Occurrence   |Veloc|    Full    Full
  Link                 Type          CMS  days hr:min     m/sec    Flow   Depth
  -----------------------------------------------------------------------------
  C1                   CONDUIT     0.038     0  06:00      0.87    0.01    0.10
  C10                  CONDUIT     0.504     0  04:41      1.68    0.05    0.58
  C11                  CONDUIT     0.181     0  09:10      1.67    0.01    0.11
  C12                  CONDUIT     0.075     0  06:03      0.68    0.01    0.19
  C13                  CONDUIT     0.776     0  04:47      1.72    0.05    0.66
  C14                  CONDUIT     0.271     0  04:48      2.08    0.02    0.09
  C15                  CONDUIT     0.417     0  04:45      3.01    1.33    0.80
  C16                  CONDUIT     0.415     0  04:46      1.68    0.04    0.13
  C17                  CONDUIT     0.704     0  04:45      2.82    0.03    0.18
  C18                  CONDUIT     0.373     0  04:45      3.03    0.01    0.54
  C19                  CONDUIT     0.031     0  08:42      0.57    0.01    0.18
  C2                   CONDUIT     0.025     0  07:15      0.80    0.03    0.17
  C20                  CONDUIT     0.520     0  04:41      2.88    0.02    0.12
  C21                  CONDUIT     0.167     0  04:42      1.79    0.96    0.60
  C22                  CONDUIT     0.167     0  04:45      1.44    0.08    0.28
  C23                  CONDUIT     0.817     0  04:46      1.15    0.09    0.60
  C3                   CONDUIT     0.119     0  09:44      1.77    0.05    0.14
  C4                   CONDUIT     0.240     0  04:41      5.48    0.06    0.58
  C5                   CONDUIT     0.061     0  04:46      1.27    1.04    0.92
  C6                   CONDUIT     0.059     0  04:55      1.26    0.94    0.65
  C7                   CONDUIT     0.144     0  04:51      1.02    0.04    0.56
  C8                   CONDUIT     0.100     0  04:40      2.12    1.26    0.81
  C9                   CONDUIT     0.096     0  04:41      1.20    0.33    0.43
  V1                   ORIFICE     0.271     0  04:46                      1.00
  V2                   ORIFICE     0.031     0  08:40                      0.24
  V3                   ORIFICE     0.119     0  09:43                      0.65
  V4                   ORIFICE     0.025     0  07:13                      0.35
  V5                   ORIFICE     0.038     0  05:58                      1.00
  V6                   ORIFICE     0.075     0  04:43                      0.43
  
  
  ***************************
  Flow Classification Summary
  ***************************
  
  -------------------------------------------------------------------------------------
                      Adjusted    ---------- Fraction of Time in Flow Class ---------- 
                       /Actual         Up    Down  Sub   Sup   Up    Down  Norm  Inlet 
  Conduit               Length    Dry  Dry   Dry   Crit  Crit  Crit  Crit  Ltd   Ctrl  
  -------------------------------------------------------------------------------------
  C1                      1.00   0.00  0.00  0.00  0.28  0.72  0.00  0.00  0.95  0.00
  C10                     1.00   0.00  0.00  0.00  0.92  0.08  0.00  0.00  0.98  0.00
  C11                     1.00   0.00  0.00  0.00  0.32  0.68  0.00  0.00  1.00  0.00
  C12                     1.00   0.00  0.00  0.00  1.00  0.00  0.00  0.00  1.00  0.00
  C13                     1.00   0.00  0.00  0.00  0.90  0.10  0.00  0.00  0.33  0.00
  C14                     1.00   0.00  0.00  0.00  0.01  0.99  0.00  0.00  0.35  0.00
  C15                     1.00   0.02  0.00  0.00  0.00  0.97  0.00  0.00  0.00  0.00
  C16                     1.00   0.00  0.03  0.00  0.26  0.72  0.00  0.00  0.22  0.00
  C17                     1.00   0.00  0.00  0.00  0.55  0.45  0.00  0.00  0.98  0.00
  C18                     1.00   0.00  0.00  0.00  0.95  0.05  0.00  0.00  0.97  0.00
  C19                     1.00   0.00  0.00  0.00  1.00  0.00  0.00  0.00  1.00  0.00
  C2                      1.00   0.00  0.00  0.00  0.93  0.07  0.00  0.00  0.99  0.00
  C20                     1.00   0.00  0.00  0.00  0.48  0.52  0.00  0.00  0.99  0.00
  C21                     1.00   0.00  0.00  0.00  0.00  1.00  0.00  0.00  0.00  0.00
  C22                     1.00   0.00  0.00  0.00  0.89  0.11  0.00  0.00  1.00  0.00
  C23                     1.00   0.00  0.00  0.00  0.91  0.09  0.00  0.00  0.95  0.00
  C3                      1.00   0.00  0.00  0.00  0.05  0.94  0.00  0.00  0.07  0.00
  C4                      1.00   0.00  0.00  0.00  0.93  0.07  0.00  0.00  0.98  0.00
  C5                      1.00   0.00  0.00  0.00  0.79  0.21  0.00  0.00  0.99  0.00
  C6                      1.00   0.00  0.00  0.00  0.04  0.96  0.00  0.00  0.00  0.00
  C7                      1.00   0.00  0.00  0.00  0.94  0.06  0.00  0.00  0.97  0.00
  C8                      1.00   0.00  0.00  0.00  0.12  0.88  0.00  0.00  0.00  0.00
  C9                      1.00   0.00  0.00  0.00  1.00  0.00  0.00  0.00  1.00  0.00
  
  
  *************************
  Conduit Surcharge Summary
  *************************
  
  ----------------------------------------------------------------------------
                                                           Hours        Hours 
                         --------- Hours Full --------   Above Full   Capacity
  Conduit                Both Ends  Upstream  Dnstream   Normal Flow   Limited
  ----------------------------------------------------------------------------
  C10                         0.01      0.01      9.44      0.01         0.01
  C13                         0.01      0.01      8.38      0.01         0.01
  C15                         0.01      0.43      0.01      0.48         0.01
  C18                         0.01      0.01      8.05      0.01         0.01
  C23                         0.01      0.01     10.11      0.01         0.01
  C4                          0.01      0.01     10.08      0.01         0.01
  C5                          0.01      0.01      0.11      0.19         0.01
  C7                          0.01      0.01      9.15      0.01         0.01
  C8                          0.01      0.53      0.01      0.52         0.01
  

  Analysis begun on:  Sun Jul 17 20:13:32 2022
  Analysis ended on:  Sun Jul 17 20:13:32 2022
  Total elapsed time: < 1 sec