
  EPA STORM WATER MANAGEMENT MODEL - VERSION 5.1 (Build 5.3.0.dev0)
  --------------------------------------------------------------

  
  *********************************************************
  NOTE: The summary statistics displayed in this report are
  based on results found at every computational time step,  
  not just on results from each reporting time step.
  *********************************************************
  
  ****************
  Analysis Options
  ****************
  Flow Units ............... CMS
  Process Models:
    Rainfall/Runoff ........ YES
    RDII ................... NO
    Snowmelt ............... NO
    Groundwater ............ NO
    Flow Routing ........... YES
    Ponding Allowed ........ NO
    Water Quality .......... NO
  Infiltration Method ...... HORTON
  Flow Routing Method ...... DYNWAVE
  Surcharge Method ......... EXTRAN
  Starting Date ............ 10/04/2008 13:10:00
  Ending Date .............. 10/04/2008 17:55:00
  Antecedent Dry Days ...... 0.0
  Report Time Step ......... 00:05:00
  Wet Time Step ............ 00:05:00
  Dry Time Step ............ 01:00:00
  Routing Time Step ........ 30.00 sec
  Variable Time Step ....... YES
  Maximum Trials ........... 8
  Number of Threads ........ 1
  Head Tolerance ........... 0.001500 m
  
  
  **************************        Volume         Depth
  Runoff Quantity Continuity     hectare-m            mm
  **************************     ---------       -------
  Total Precipitation ......         1.211         6.720
  Evaporation Loss .........         0.000         0.000
  Infiltration Loss ........         0.000         0.000
  Surface Runoff ...........         1.194         6.626
  Final Storage ............         0.042         0.233
  Continuity Error (%) .....        -2.070
  
  
  **************************        Volume        Volume
  Flow Routing Continuity        hectare-m      10^6 ltr
  **************************     ---------     ---------
  Dry Weather Inflow .......         0.203         2.027
  Wet Weather Inflow .......         1.192        11.916
  Groundwater Inflow .......         0.000         0.000
  RDII Inflow ..............         0.000         0.000
  External Inflow ..........         0.000         0.000
  External Outflow .........         0.408         4.075
  Flooding Loss ............         0.655         6.551
  Evaporation Loss .........         0.000         0.000
  Exfiltration Loss ........         0.000         0.000
  Initial Stored Volume ....         0.000         0.000
  Final Stored Volume ......         0.275         2.754
  Continuity Error (%) .....         4.034
  
  
  *************************
  Highest Continuity Errors
  *************************
  Node T2 (34.20%)
  Node T4 (26.51%)
  Node T3 (21.81%)
  Node T6 (20.11%)
  Node T5 (18.12%)
  
  
  ***************************
  Time-Step Critical Elements
  ***************************
  Link C21 (37.69%)
  Link C15 (1.23%)
  
  
  ********************************
  Highest Flow Instability Indexes
  ********************************
  Link C14 (2)
  Link C21 (2)
  Link C18 (1)
  Link C4 (1)
  
  
  *************************
  Routing Time Step Summary
  *************************
  Minimum Time Step           :     0.18 sec
  Average Time Step           :    26.13 sec
  Maximum Time Step           :    30.00 sec
  Percent in Steady State     :    15.33
  Average Iterations per Step :     2.37
  Percent Not Converging      :     1.08
  
  
  ***************************
  Subcatchment Runoff Summary
  ***************************
  
  ------------------------------------------------------------------------------------------------------------------------------
                            Total      Total      Total      Total     Imperv       Perv      Total       Total     Peak  Runoff
                           Precip      Runon       Evap      Infil     Runoff     Runoff     Runoff      Runoff   Runoff   Coeff
  Subcatchment                 mm         mm         mm         mm         mm         mm         mm    10^6 ltr      CMS
  ------------------------------------------------------------------------------------------------------------------------------
  SC01                      17.74       0.00       0.00       0.00      17.99       0.00      17.99        5.94     3.57   1.014
  SC010                     17.74       0.00       0.00       0.00      17.82       0.00      17.82        2.09     1.16   1.004
  SC02                       1.05       0.00       0.00       0.00       0.92       0.00       0.92        0.21     0.07   0.878
  SC03                       0.86       0.00       0.00       0.00       0.77       0.00       0.77        0.14     0.09   0.899
  SC04                       1.05       0.00       0.00       0.00       0.78       0.00       0.78        0.05     0.01   0.747
  SC05                      17.74       0.00       0.00       0.00      17.94       0.00      17.94        2.80     1.65   1.011
  SC06                       1.64       0.00       0.00       0.00       1.18       0.00       1.18        0.39     0.12   0.722
  SC07                       1.05       0.00       0.00       0.00       0.79       0.00       0.79        0.04     0.01   0.748
  SC08                       0.86       0.00       0.00       0.00       0.68       0.00       0.68        0.19     0.07   0.796
  SC09                       1.64       0.00       0.00       0.00       1.36       0.00       1.36        0.09     0.04   0.830
  
  
  ******************
  Node Depth Summary
  ******************
  
  ---------------------------------------------------------------------------------
                                 Average  Maximum  Maximum  Time of Max    Reported
                                   Depth    Depth      HGL   Occurrence   Max Depth
  Node                 Type       Meters   Meters   Meters  days hr:min      Meters
  ---------------------------------------------------------------------------------
  CSO10                JUNCTION     0.36     1.00    31.00     0  00:17        1.00
  CSO7                 JUNCTION     0.07     0.09    34.09     0  02:26        0.09
  CSO8                 JUNCTION     0.08     0.17    32.17     0  02:25        0.16
  CSO9                 JUNCTION     0.08     0.18    40.18     0  02:46        0.18
  J1                   JUNCTION     0.13     0.51    34.51     0  02:35        0.51
  J10                  JUNCTION     0.07     0.12    29.12     0  02:30        0.12
  J11                  JUNCTION     0.07     0.12    31.12     0  02:31        0.12
  J12                  JUNCTION     0.10     0.14    26.14     0  02:34        0.14
  J13                  JUNCTION     0.05     0.08    29.08     0  02:26        0.08
  J14                  JUNCTION     0.08     0.11    20.11     0  04:45        0.11
  J15                  JUNCTION     0.24     0.81    15.81     0  02:36        0.77
  J16                  JUNCTION     0.13     0.45    30.45     0  02:35        0.45
  J17                  JUNCTION     0.04     0.09    20.09     0  02:49        0.09
  J18                  JUNCTION     0.09     0.16    29.16     0  02:51        0.16
  J19                  JUNCTION     0.16     0.17     8.17     0  02:32        0.17
  J2                   JUNCTION     0.07     0.08    25.08     0  03:22        0.08
  J3                   JUNCTION     0.09     0.11    18.11     0  02:55        0.11
  J4                   JUNCTION     0.09     0.11    33.11     0  02:33        0.11
  J5                   JUNCTION     0.05     0.06    32.06     0  02:33        0.06
  J6                   JUNCTION     0.04     0.07    25.07     0  02:54        0.07
  J7                   JUNCTION     0.06     0.13    39.13     0  02:53        0.13
  J8                   JUNCTION     0.08     0.14    36.14     0  02:51        0.14
  J9                   JUNCTION     0.08     0.10    29.10     0  04:00        0.10
  Out_to_WWTP          OUTFALL      0.16     0.17     6.17     0  02:32        0.17
  T1                   STORAGE      4.21     5.00    15.00     0  00:33        5.00
  T2                   STORAGE      0.39     0.63    21.63     0  04:45        0.63
  T3                   STORAGE      0.34     0.73    22.73     0  04:45        0.73
  T4                   STORAGE      0.38     0.61    27.61     0  04:45        0.61
  T5                   STORAGE      4.36     5.00    32.00     0  02:27        5.00
  T6                   STORAGE      0.39     0.78    31.78     0  03:57        0.78
  
  
  *******************
  Node Inflow Summary
  *******************
  
  -------------------------------------------------------------------------------------------------
                                  Maximum  Maximum                  Lateral       Total        Flow
                                  Lateral    Total  Time of Max      Inflow      Inflow     Balance
                                   Inflow   Inflow   Occurrence      Volume      Volume       Error
  Node                 Type           CMS      CMS  days hr:min    10^6 ltr    10^6 ltr     Percent
  -------------------------------------------------------------------------------------------------
  CSO10                JUNCTION     1.166    1.166     0  02:35        2.16        2.17      -0.392
  CSO7                 JUNCTION     0.016    0.016     0  02:25       0.184       0.184       0.200
  CSO8                 JUNCTION     0.083    0.083     0  02:25       0.368       0.368       0.014
  CSO9                 JUNCTION     0.044    0.044     0  02:50       0.193       0.193      -0.285
  J1                   JUNCTION     1.670    1.670     0  02:35        3.08        3.08      -0.652
  J10                  JUNCTION     0.101    0.157     0  02:27       0.333         0.7      -0.105
  J11                  JUNCTION     0.000    0.083     0  02:26           0       0.368       0.372
  J12                  JUNCTION     0.000    0.185     0  02:30           0        1.45       1.728
  J13                  JUNCTION     0.082    0.082     0  02:25       0.445       0.446      -0.598
  J14                  JUNCTION     0.000    0.071     0  04:45           0       0.733       0.846
  J15                  JUNCTION     0.000    3.932     0  02:35           0        9.06      -2.325
  J16                  JUNCTION     3.590    3.590     0  02:35         6.2        6.22      -0.778
  J17                  JUNCTION     0.000    0.044     0  02:46           0       0.168      -3.202
  J18                  JUNCTION     0.000    0.202     0  02:51           0        1.14      -2.261
  J19                  JUNCTION     0.000    0.271     0  00:33           0        4.09       0.285
  J2                   JUNCTION     0.000    0.039     0  02:27           0        0.61       0.857
  J3                   JUNCTION     0.000    0.120     0  02:55           0        1.49       2.377
  J4                   JUNCTION     0.000    0.016     0  02:26           0       0.183       1.222
  J5                   JUNCTION     0.015    0.028     0  02:30       0.118         0.3       0.132
  J6                   JUNCTION     0.000    0.024     0  02:52           0       0.158       1.012
  J7                   JUNCTION     0.000    0.044     0  02:47           0       0.194      -1.471
  J8                   JUNCTION     0.147    0.186     0  02:50       0.859        1.06      -0.699
  J9                   JUNCTION     0.000    0.068     0  03:57           0       0.767       2.500
  Out_to_WWTP          OUTFALL      0.000    0.271     0  02:32           0        4.08       0.000
  T1                   STORAGE      0.000    3.445     0  02:37           0        9.28       6.807
  T2                   STORAGE      0.000    0.078     0  02:27           0       0.448      51.978
  T3                   STORAGE      0.000    0.174     0  02:35           0        1.42      27.901
  T4                   STORAGE      0.000    0.028     0  02:33           0       0.299      36.070
  T5                   STORAGE      0.000    1.657     0  02:35           0         3.1      22.132
  T6                   STORAGE      0.000    0.181     0  02:51           0        1.06      25.168
  
  
  **********************
  Node Surcharge Summary
  **********************
  
  Surcharging occurs when water rises above the top of the highest conduit.
  ---------------------------------------------------------------------
                                               Max. Height   Min. Depth
                                   Hours       Above Crown    Below Rim
  Node                 Type      Surcharged         Meters       Meters
  ---------------------------------------------------------------------
  CSO10                JUNCTION        0.91          0.560        0.000
  
  
  *********************
  Node Flooding Summary
  *********************
  
  Flooding refers to all water that overflows a node, whether it ponds or not.
  --------------------------------------------------------------------------
                                                             Total   Maximum
                                 Maximum   Time of Max       Flood    Ponded
                        Hours       Rate    Occurrence      Volume     Depth
  Node                 Flooded       CMS   days hr:min    10^6 ltr    Meters
  --------------------------------------------------------------------------
  CSO10                   0.79     0.963      0  02:35       1.034     0.000
  T1                      1.77     3.173      0  02:37       4.051     0.000
  T5                      1.16     1.616      0  02:35       1.464     0.000
  
  
  **********************
  Storage Volume Summary
  **********************
  
  --------------------------------------------------------------------------------------------------
                         Average     Avg  Evap Exfil       Maximum     Max    Time of Max    Maximum
                          Volume    Pcnt  Pcnt  Pcnt        Volume    Pcnt     Occurrence    Outflow
  Storage Unit           1000 m3    Full  Loss  Loss       1000 m3    Full    days hr:min        CMS
  --------------------------------------------------------------------------------------------------
  T1                       0.589      84     0     0         0.700     100       0  00:33      0.271
  T2                       0.077       8     0     0         0.127      13       0  04:45      0.044
  T3                       0.174       7     0     0         0.381      15       0  04:45      0.071
  T4                       0.038       8     0     0         0.061      12       0  04:45      0.024
  T5                       0.436      87     0     0         0.500     100       0  02:27      0.039
  T6                       0.046       8     0     0         0.093      16       0  03:57      0.068
  
  
  ***********************
  Outfall Loading Summary
  ***********************
  
  -----------------------------------------------------------
                         Flow       Avg       Max       Total
                         Freq      Flow      Flow      Volume
  Outfall Node           Pcnt       CMS       CMS    10^6 ltr
  -----------------------------------------------------------
  Out_to_WWTP           98.62     0.241     0.271       4.075
  -----------------------------------------------------------
  System                98.62     0.241     0.271       4.075
  
  
  ********************
  Link Flow Summary
  ********************
  
  -----------------------------------------------------------------------------
                                 Maximum  Time of Max   Maximum    Max/    Max/
                                  |Flow|   Occurrence   |Veloc|    Full    Full
  Link                 Type          CMS  days hr:min     m/sec    Flow   Depth
  -----------------------------------------------------------------------------
  C1                   CONDUIT     0.039     0  03:24      1.44    0.01    0.09
  C10                  CONDUIT     0.181     0  02:51      1.81    0.02    0.29
  C11                  CONDUIT     0.119     0  02:55      1.49    0.01    0.23
  C12                  CONDUIT     0.068     0  04:00      1.04    0.01    0.06
  C13                  CONDUIT     0.174     0  02:35      1.61    0.01    0.21
  C14                  CONDUIT     0.271     0  02:32      2.08    0.02    0.09
  C15                  CONDUIT     0.083     0  02:26      2.01    0.26    0.31
  C16                  CONDUIT     0.074     0  02:31      0.95    0.01    0.06
  C17                  CONDUIT     0.152     0  02:30      1.80    0.01    0.07
  C18                  CONDUIT     0.078     0  02:27      3.17    0.00    0.17
  C19                  CONDUIT     0.044     0  02:49      0.60    0.02    0.45
  C2                   CONDUIT     0.023     0  02:54      0.95    0.03    0.15
  C20                  CONDUIT     3.584     0  02:35      5.74    0.11    0.31
  C21                  CONDUIT     0.202     0  02:51      1.90    1.16    0.69
  C22                  CONDUIT     0.202     0  02:51      1.68    0.09    0.60
  C23                  CONDUIT     3.445     0  02:37      3.21    0.38    0.77
  C3                   CONDUIT     0.071     0  04:45      1.47    0.03    0.11
  C4                   CONDUIT     1.657     0  02:35      3.10    0.40    0.76
  C5                   CONDUIT     0.016     0  02:26      1.34    0.27    0.38
  C6                   CONDUIT     0.015     0  02:34      0.94    0.23    0.28
  C7                   CONDUIT     0.028     0  02:33      1.57    0.01    0.33
  C8                   CONDUIT     0.044     0  02:47      1.27    0.56    0.48
  C9                   CONDUIT     0.041     0  02:53      0.97    0.14    0.27
  V1                   ORIFICE     0.271     0  00:33                      1.00
  V2                   ORIFICE     0.044     0  02:46                      1.00
  V3                   ORIFICE     0.071     0  04:45                      1.00
  V4                   ORIFICE     0.024     0  02:52                      1.00
  V5                   ORIFICE     0.039     0  02:27                      1.00
  V6                   ORIFICE     0.068     0  03:57                      1.00
  
  
  ***************************
  Flow Classification Summary
  ***************************
  
  -------------------------------------------------------------------------------------
                      Adjusted    ---------- Fraction of Time in Flow Class ---------- 
                       /Actual         Up    Down  Sub   Sup   Up    Down  Norm  Inlet 
  Conduit               Length    Dry  Dry   Dry   Crit  Crit  Crit  Crit  Ltd   Ctrl  
  -------------------------------------------------------------------------------------
  C1                      1.00   0.00  0.00  0.00  0.01  0.99  0.00  0.00  0.86  0.00
  C10                     1.00   0.00  0.00  0.00  0.93  0.07  0.00  0.00  0.97  0.00
  C11                     1.00   0.00  0.00  0.00  0.53  0.46  0.00  0.00  1.00  0.00
  C12                     1.00   0.00  0.00  0.00  0.34  0.66  0.00  0.00  1.00  0.00
  C13                     1.00   0.00  0.00  0.00  0.72  0.28  0.00  0.00  0.85  0.00
  C14                     1.00   0.01  0.00  0.00  0.02  0.97  0.00  0.00  0.34  0.00
  C15                     1.00   0.00  0.00  0.00  0.00  1.00  0.00  0.00  0.00  0.00
  C16                     1.00   0.00  0.00  0.00  0.52  0.48  0.00  0.00  0.56  0.00
  C17                     1.00   0.00  0.00  0.00  0.24  0.76  0.00  0.00  0.96  0.00
  C18                     1.00   0.00  0.00  0.00  0.88  0.12  0.00  0.00  0.96  0.00
  C19                     1.00   0.00  0.00  0.00  1.00  0.00  0.00  0.00  1.00  0.00
  C2                      1.00   0.00  0.00  0.00  0.74  0.25  0.00  0.00  0.96  0.00
  C20                     1.00   0.00  0.00  0.00  0.39  0.61  0.00  0.00  0.94  0.00
  C21                     1.00   0.00  0.00  0.00  0.02  0.98  0.00  0.00  0.00  0.00
  C22                     1.00   0.00  0.00  0.00  0.70  0.30  0.00  0.00  1.00  0.00
  C23                     1.00   0.00  0.00  0.00  0.92  0.08  0.00  0.00  0.89  0.00
  C3                      1.00   0.00  0.01  0.00  0.10  0.89  0.00  0.00  0.65  0.00
  C4                      1.00   0.00  0.00  0.00  0.93  0.07  0.00  0.00  0.94  0.00
  C5                      1.00   0.00  0.00  0.00  0.88  0.12  0.00  0.00  0.97  0.00
  C6                      1.00   0.00  0.00  0.00  0.01  0.98  0.00  0.00  0.01  0.00
  C7                      1.00   0.00  0.00  0.00  0.91  0.09  0.00  0.00  0.95  0.00
  C8                      1.00   0.00  0.00  0.00  0.00  1.00  0.00  0.00  0.00  0.00
  C9                      1.00   0.00  0.00  0.00  0.97  0.02  0.00  0.00  1.00  0.00
  
  
  *************************
  Conduit Surcharge Summary
  *************************
  
  ----------------------------------------------------------------------------
                                                           Hours        Hours 
                         --------- Hours Full --------   Above Full   Capacity
  Conduit                Both Ends  Upstream  Dnstream   Normal Flow   Limited
  ----------------------------------------------------------------------------
  C21                         0.01      0.91      0.01      0.87         0.01
  C22                         0.01      0.01      0.04      0.01         0.01
  C23                         0.01      0.01      4.35      0.01         0.01
  C4                          0.01      0.01      4.39      0.01         0.01
  

  Analysis begun on:  Sun Jul 17 21:05:11 2022
  Analysis ended on:  Sun Jul 17 21:05:11 2022
  Total elapsed time: < 1 sec