
  EPA STORM WATER MANAGEMENT MODEL - VERSION 5.1 (Build 5.3.0.dev0)
  --------------------------------------------------------------

  
  *********************************************************
  NOTE: The summary statistics displayed in this report are
  based on results found at every computational time step,  
  not just on results from each reporting time step.
  *********************************************************
  
  ****************
  Analysis Options
  ****************
  Flow Units ............... CMS
  Process Models:
    Rainfall/Runoff ........ YES
    RDII ................... NO
    Snowmelt ............... NO
    Groundwater ............ NO
    Flow Routing ........... YES
    Ponding Allowed ........ NO
    Water Quality .......... NO
  Infiltration Method ...... HORTON
  Flow Routing Method ...... DYNWAVE
  Surcharge Method ......... EXTRAN
  Starting Date ............ 03/28/2009 08:20:00
  Ending Date .............. 03/28/2009 18:55:00
  Antecedent Dry Days ...... 0.0
  Report Time Step ......... 00:05:00
  Wet Time Step ............ 00:05:00
  Dry Time Step ............ 01:00:00
  Routing Time Step ........ 30.00 sec
  Variable Time Step ....... YES
  Maximum Trials ........... 8
  Number of Threads ........ 1
  Head Tolerance ........... 0.001500 m
  
  
  **************************        Volume         Depth
  Runoff Quantity Continuity     hectare-m            mm
  **************************     ---------       -------
  Total Precipitation ......         1.417         7.865
  Evaporation Loss .........         0.000         0.000
  Infiltration Loss ........         0.000         0.000
  Surface Runoff ...........         1.399         7.761
  Final Storage ............         0.020         0.112
  Continuity Error (%) .....        -0.097
  
  
  **************************        Volume        Volume
  Flow Routing Continuity        hectare-m      10^6 ltr
  **************************     ---------     ---------
  Dry Weather Inflow .......         0.491         4.910
  Wet Weather Inflow .......         1.398        13.984
  Groundwater Inflow .......         0.000         0.000
  RDII Inflow ..............         0.000         0.000
  External Inflow ..........         0.000         0.000
  External Outflow .........         0.822         8.222
  Flooding Loss ............         0.134         1.342
  Evaporation Loss .........         0.000         0.000
  Exfiltration Loss ........         0.000         0.000
  Initial Stored Volume ....         0.000         0.000
  Final Stored Volume ......         0.721         7.213
  Continuity Error (%) .....        11.209
  
  
  *************************
  Highest Continuity Errors
  *************************
  Node T2 (34.47%)
  Node T6 (18.92%)
  Node T5 (18.53%)
  Node T3 (18.47%)
  Node T4 (16.64%)
  
  
  ***************************
  Time-Step Critical Elements
  ***************************
  Link C15 (49.90%)
  Link C21 (2.58%)
  
  
  ********************************
  Highest Flow Instability Indexes
  ********************************
  Link C13 (10)
  Link C3 (3)
  Link V3 (3)
  Link C23 (2)
  Link C11 (2)
  
  
  *************************
  Routing Time Step Summary
  *************************
  Minimum Time Step           :     0.04 sec
  Average Time Step           :    25.90 sec
  Maximum Time Step           :    30.00 sec
  Percent in Steady State     :     0.40
  Average Iterations per Step :     2.02
  Percent Not Converging      :     0.00
  
  
  ***************************
  Subcatchment Runoff Summary
  ***************************
  
  ------------------------------------------------------------------------------------------------------------------------------
                            Total      Total      Total      Total     Imperv       Perv      Total       Total     Peak  Runoff
                           Precip      Runon       Evap      Infil     Runoff     Runoff     Runoff      Runoff   Runoff   Coeff
  Subcatchment                 mm         mm         mm         mm         mm         mm         mm    10^6 ltr      CMS
  ------------------------------------------------------------------------------------------------------------------------------
  SC01                       7.93       0.00       0.00       0.00       7.86       0.00       7.86        2.59     0.28   0.991
  SC010                      7.93       0.00       0.00       0.00       7.84       0.00       7.84        0.92     0.09   0.988
  SC02                       7.67       0.00       0.00       0.00       7.58       0.00       7.58        1.73     0.15   0.989
  SC03                       7.94       0.00       0.00       0.00       7.89       0.00       7.89        1.42     0.13   0.993
  SC04                       7.67       0.00       0.00       0.00       7.51       0.00       7.51        0.52     0.04   0.979
  SC05                       7.93       0.00       0.00       0.00       7.86       0.00       7.86        1.23     0.13   0.991
  SC06                       7.85       0.00       0.00       0.00       7.66       0.00       7.66        2.49     0.19   0.976
  SC07                       7.67       0.00       0.00       0.00       7.51       0.00       7.51        0.36     0.03   0.979
  SC08                       7.94       0.00       0.00       0.00       7.85       0.00       7.85        2.20     0.19   0.989
  SC09                       7.85       0.00       0.00       0.00       7.73       0.00       7.73        0.53     0.04   0.985
  
  
  ******************
  Node Depth Summary
  ******************
  
  ---------------------------------------------------------------------------------
                                 Average  Maximum  Maximum  Time of Max    Reported
                                   Depth    Depth      HGL   Occurrence   Max Depth
  Node                 Type       Meters   Meters   Meters  days hr:min      Meters
  ---------------------------------------------------------------------------------
  CSO10                JUNCTION     0.13     0.25    30.25     0  05:01        0.24
  CSO7                 JUNCTION     0.10     0.16    34.16     0  03:06        0.15
  CSO8                 JUNCTION     0.14     0.27    32.27     0  03:05        0.27
  CSO9                 JUNCTION     0.11     0.19    40.19     0  01:15        0.19
  J1                   JUNCTION     0.08     0.13    34.13     0  05:01        0.13
  J10                  JUNCTION     0.10     0.18    29.18     0  03:05        0.18
  J11                  JUNCTION     0.11     0.19    31.19     0  03:06        0.19
  J12                  JUNCTION     0.51     0.96    26.96     0  05:24        0.95
  J13                  JUNCTION     0.07     0.11    29.11     0  03:06        0.11
  J14                  JUNCTION     0.11     0.19    20.19     0  04:27        0.19
  J15                  JUNCTION     0.17     0.27    15.27     0  05:10        0.27
  J16                  JUNCTION     0.07     0.14    30.14     0  05:01        0.13
  J17                  JUNCTION     0.06     0.11    20.11     0  02:10        0.11
  J18                  JUNCTION     0.06     0.11    29.11     0  05:04        0.11
  J19                  JUNCTION     0.15     0.17     8.17     0  03:28        0.17
  J2                   JUNCTION     0.07     0.08    25.08     0  05:45        0.08
  J3                   JUNCTION     0.11     0.17    18.17     0  05:10        0.17
  J4                   JUNCTION     0.12     0.19    33.19     0  03:17        0.19
  J5                   JUNCTION     0.07     0.10    32.10     0  03:16        0.10
  J6                   JUNCTION     0.06     0.11    25.11     0  04:46        0.11
  J7                   JUNCTION     0.09     0.14    39.14     0  01:16        0.14
  J8                   JUNCTION     0.11     0.17    36.17     0  02:56        0.17
  J9                   JUNCTION     0.11     0.16    29.16     0  04:14        0.16
  Out_to_WWTP          OUTFALL      0.15     0.17     6.17     0  06:23        0.17
  T1                   STORAGE      3.52     5.00    15.00     0  03:27        5.00
  T2                   STORAGE      2.85     4.12    25.12     0  07:57        4.12
  T3                   STORAGE      3.50     4.96    26.96     0  05:28        4.96
  T4                   STORAGE      2.64     3.95    30.95     0  06:03        3.95
  T5                   STORAGE      3.31     5.00    32.00     0  05:16        5.00
  T6                   STORAGE      3.88     5.00    36.00     0  07:19        5.00
  
  
  *******************
  Node Inflow Summary
  *******************
  
  -------------------------------------------------------------------------------------------------
                                  Maximum  Maximum                  Lateral       Total        Flow
                                  Lateral    Total  Time of Max      Inflow      Inflow     Balance
                                   Inflow   Inflow   Occurrence      Volume      Volume       Error
  Node                 Type           CMS      CMS  days hr:min    10^6 ltr    10^6 ltr     Percent
  -------------------------------------------------------------------------------------------------
  CSO10                JUNCTION     0.092    0.092     0  05:00        1.09        1.09       0.010
  CSO7                 JUNCTION     0.040    0.040     0  03:05       0.717       0.717       0.064
  CSO8                 JUNCTION     0.202    0.202     0  03:05        2.56        2.56      -0.002
  CSO9                 JUNCTION     0.051    0.051     0  01:15       0.777       0.777       0.048
  J1                   JUNCTION     0.149    0.149     0  05:00        1.92        1.92      -0.047
  J10                  JUNCTION     0.143    0.344     0  03:05         1.9        4.46      -0.053
  J11                  JUNCTION     0.000    0.202     0  03:05           0        2.56       0.010
  J12                  JUNCTION     0.000    0.503     0  03:06           0        7.61       7.412
  J13                  JUNCTION     0.167    0.167     0  03:05        2.31        2.31      -0.189
  J14                  JUNCTION     0.000    0.189     0  05:28           0        3.13       0.154
  J15                  JUNCTION     0.000    0.654     0  05:08           0        10.2       0.535
  J16                  JUNCTION     0.300    0.300     0  05:00        3.28        3.29      -0.058
  J17                  JUNCTION     0.000    0.073     0  02:10           0       0.693       0.275
  J18                  JUNCTION     0.000    0.092     0  05:01           0        1.09      -0.012
  J19                  JUNCTION     0.000    0.271     0  03:27           0        8.23       0.112
  J2                   JUNCTION     0.000    0.039     0  05:17           0        1.18       0.411
  J3                   JUNCTION     0.000    0.297     0  05:10           0        5.16       0.472
  J4                   JUNCTION     0.000    0.040     0  03:06           0       0.717       0.480
  J5                   JUNCTION     0.046    0.086     0  03:15       0.676        1.39       0.068
  J6                   JUNCTION     0.000    0.070     0  05:05           0       0.852       0.212
  J7                   JUNCTION     0.000    0.051     0  01:15           0       0.776       0.384
  J8                   JUNCTION     0.225    0.273     0  02:55        3.66        4.44       0.053
  J9                   JUNCTION     0.000    0.174     0  04:12           0        2.94       0.026
  Out_to_WWTP          OUTFALL      0.000    0.271     0  03:28           0        8.22       0.000
  T1                   STORAGE      0.000    0.646     0  05:10           0        10.2       3.851
  T2                   STORAGE      0.000    0.167     0  03:06           0        2.31      52.605
  T3                   STORAGE      0.000    0.558     0  04:14           0        7.09      22.662
  T4                   STORAGE      0.000    0.086     0  03:16           0        1.39      19.958
  T5                   STORAGE      0.000    0.148     0  05:01           0        1.93      22.743
  T6                   STORAGE      0.000    0.272     0  02:56           0        4.43      23.341
  
  
  **********************
  Node Surcharge Summary
  **********************
  
  No nodes were surcharged.
  
  
  *********************
  Node Flooding Summary
  *********************
  
  Flooding refers to all water that overflows a node, whether it ponds or not.
  --------------------------------------------------------------------------
                                                             Total   Maximum
                                 Maximum   Time of Max       Flood    Ponded
                        Hours       Rate    Occurrence      Volume     Depth
  Node                 Flooded       CMS   days hr:min    10^6 ltr    Meters
  --------------------------------------------------------------------------
  T1                      2.77     0.375      0  05:10       1.246     0.000
  T5                      0.49     0.065      0  05:16       0.043     0.000
  T6                      2.67     0.013      0  07:19       0.052     0.000
  
  
  **********************
  Storage Volume Summary
  **********************
  
  --------------------------------------------------------------------------------------------------
                         Average     Avg  Evap Exfil       Maximum     Max    Time of Max    Maximum
                          Volume    Pcnt  Pcnt  Pcnt        Volume    Pcnt     Occurrence    Outflow
  Storage Unit           1000 m3    Full  Loss  Loss       1000 m3    Full    days hr:min        CMS
  --------------------------------------------------------------------------------------------------
  T1                       0.492      70     0     0         0.700     100       0  03:27      0.271
  T2                       0.570      57     0     0         0.824      82       0  07:57      0.073
  T3                       1.821      70     0     0         2.581      99       0  05:28      0.227
  T4                       0.264      53     0     0         0.395      79       0  06:03      0.070
  T5                       0.331      66     0     0         0.500     100       0  05:16      0.039
  T6                       0.466      78     0     0         0.600     100       0  07:19      0.174
  
  
  ***********************
  Outfall Loading Summary
  ***********************
  
  -----------------------------------------------------------
                         Flow       Avg       Max       Total
                         Freq      Flow      Flow      Volume
  Outfall Node           Pcnt       CMS       CMS    10^6 ltr
  -----------------------------------------------------------
  Out_to_WWTP           99.25     0.217     0.271       8.222
  -----------------------------------------------------------
  System                99.25     0.217     0.271       8.222
  
  
  ********************
  Link Flow Summary
  ********************
  
  -----------------------------------------------------------------------------
                                 Maximum  Time of Max   Maximum    Max/    Max/
                                  |Flow|   Occurrence   |Veloc|    Full    Full
  Link                 Type          CMS  days hr:min     m/sec    Flow   Depth
  -----------------------------------------------------------------------------
  C1                   CONDUIT     0.039     0  05:46      1.02    0.01    0.12
  C10                  CONDUIT     0.272     0  02:56      1.66    0.03    0.56
  C11                  CONDUIT     0.290     0  05:10      1.88    0.01    0.11
  C12                  CONDUIT     0.174     0  04:14      1.11    0.01    0.28
  C13                  CONDUIT     0.558     0  04:14      1.96    0.03    0.74
  C14                  CONDUIT     0.271     0  03:28      2.08    0.02    0.09
  C15                  CONDUIT     0.202     0  03:05      2.40    0.64    0.52
  C16                  CONDUIT     0.201     0  03:06      1.35    0.02    0.09
  C17                  CONDUIT     0.343     0  03:06      2.09    0.02    0.26
  C18                  CONDUIT     0.167     0  03:06      3.36    0.01    0.53
  C19                  CONDUIT     0.069     0  02:10      0.88    0.02    0.17
  C2                   CONDUIT     0.069     0  04:47      1.52    0.08    0.23
  C20                  CONDUIT     0.297     0  05:01      2.34    0.01    0.10
  C21                  CONDUIT     0.092     0  05:01      1.59    0.52    0.40
  C22                  CONDUIT     0.090     0  05:05      1.02    0.04    0.24
  C23                  CONDUIT     0.646     0  05:10      1.54    0.07    0.59
  C3                   CONDUIT     0.190     0  05:02      2.23    0.07    0.18
  C4                   CONDUIT     0.148     0  05:01      3.06    0.04    0.56
  C5                   CONDUIT     0.040     0  03:06      1.23    0.68    0.67
  C6                   CONDUIT     0.040     0  03:17      1.19    0.63    0.48
  C7                   CONDUIT     0.086     0  03:16      1.44    0.02    0.55
  C8                   CONDUIT     0.051     0  01:15      1.21    0.64    0.53
  C9                   CONDUIT     0.051     0  01:16      0.98    0.17    0.31
  V1                   ORIFICE     0.271     0  03:27                      1.00
  V2                   ORIFICE     0.073     0  02:10                      1.00
  V3                   ORIFICE     0.189     0  05:28                      1.00
  V4                   ORIFICE     0.070     0  05:05                      1.00
  V5                   ORIFICE     0.039     0  05:17                      1.00
  V6                   ORIFICE     0.174     0  04:12                      1.00
  
  
  ***************************
  Flow Classification Summary
  ***************************
  
  -------------------------------------------------------------------------------------
                      Adjusted    ---------- Fraction of Time in Flow Class ---------- 
                       /Actual         Up    Down  Sub   Sup   Up    Down  Norm  Inlet 
  Conduit               Length    Dry  Dry   Dry   Crit  Crit  Crit  Crit  Ltd   Ctrl  
  -------------------------------------------------------------------------------------
  C1                      1.00   0.00  0.00  0.00  0.31  0.69  0.00  0.00  0.96  0.00
  C10                     1.00   0.00  0.00  0.00  0.96  0.04  0.00  0.00  0.98  0.00
  C11                     1.00   0.00  0.00  0.00  0.28  0.72  0.00  0.00  1.00  0.00
  C12                     1.00   0.00  0.00  0.00  1.00  0.00  0.00  0.00  1.00  0.00
  C13                     1.00   0.00  0.00  0.00  0.92  0.07  0.00  0.00  0.28  0.00
  C14                     1.00   0.00  0.00  0.00  0.00  0.99  0.00  0.00  0.39  0.00
  C15                     1.00   0.00  0.00  0.00  0.02  0.98  0.00  0.00  0.04  0.00
  C16                     1.00   0.00  0.00  0.00  0.37  0.63  0.00  0.00  0.15  0.00
  C17                     1.00   0.00  0.00  0.00  0.59  0.41  0.00  0.00  0.98  0.00
  C18                     1.00   0.00  0.00  0.00  0.94  0.06  0.00  0.00  0.98  0.00
  C19                     1.00   0.00  0.00  0.00  1.00  0.00  0.00  0.00  1.00  0.00
  C2                      1.00   0.00  0.00  0.00  0.31  0.68  0.00  0.00  0.99  0.00
  C20                     1.00   0.00  0.00  0.00  0.46  0.54  0.00  0.00  0.99  0.00
  C21                     1.00   0.00  0.00  0.00  0.00  1.00  0.00  0.00  0.00  0.00
  C22                     1.00   0.00  0.00  0.00  0.90  0.10  0.00  0.00  1.00  0.00
  C23                     1.00   0.00  0.00  0.00  0.94  0.06  0.00  0.00  0.96  0.00
  C3                      1.00   0.00  0.00  0.00  0.03  0.96  0.00  0.00  0.61  0.00
  C4                      1.00   0.00  0.00  0.00  0.97  0.03  0.00  0.00  0.99  0.00
  C5                      1.00   0.00  0.00  0.00  0.93  0.07  0.00  0.00  0.99  0.00
  C6                      1.00   0.00  0.00  0.00  0.01  0.99  0.00  0.00  0.00  0.00
  C7                      1.00   0.00  0.00  0.00  0.96  0.04  0.00  0.00  0.98  0.00
  C8                      1.00   0.00  0.00  0.00  0.00  1.00  0.00  0.00  0.00  0.00
  C9                      1.00   0.00  0.00  0.00  1.00  0.00  0.00  0.00  1.00  0.00
  
  
  *************************
  Conduit Surcharge Summary
  *************************
  
  ----------------------------------------------------------------------------
                                                           Hours        Hours 
                         --------- Hours Full --------   Above Full   Capacity
  Conduit                Both Ends  Upstream  Dnstream   Normal Flow   Limited
  ----------------------------------------------------------------------------
  C10                         0.01      0.01      9.25      0.01         0.01
  C13                         0.01      0.01      8.15      0.01         0.01
  C18                         0.01      0.01      7.72      0.01         0.01
  C23                         0.01      0.01      9.36      0.01         0.01
  C4                          0.01      0.01      9.44      0.01         0.01
  C7                          0.01      0.01      8.75      0.01         0.01
  

  Analysis begun on:  Sun Jul 17 21:25:38 2022
  Analysis ended on:  Sun Jul 17 21:25:40 2022
  Total elapsed time: 00:00:02