
  EPA STORM WATER MANAGEMENT MODEL - VERSION 5.1 (Build 5.3.0.dev0)
  --------------------------------------------------------------

  
  *********************************************************
  NOTE: The summary statistics displayed in this report are
  based on results found at every computational time step,  
  not just on results from each reporting time step.
  *********************************************************
  
  ****************
  Analysis Options
  ****************
  Flow Units ............... CMS
  Process Models:
    Rainfall/Runoff ........ YES
    RDII ................... NO
    Snowmelt ............... NO
    Groundwater ............ NO
    Flow Routing ........... YES
    Ponding Allowed ........ NO
    Water Quality .......... NO
  Infiltration Method ...... HORTON
  Flow Routing Method ...... DYNWAVE
  Surcharge Method ......... EXTRAN
  Starting Date ............ 07/05/2009 13:10:00
  Ending Date .............. 07/05/2009 19:45:00
  Antecedent Dry Days ...... 0.0
  Report Time Step ......... 00:05:00
  Wet Time Step ............ 00:05:00
  Dry Time Step ............ 01:00:00
  Routing Time Step ........ 30.00 sec
  Variable Time Step ....... YES
  Maximum Trials ........... 8
  Number of Threads ........ 1
  Head Tolerance ........... 0.001500 m
  
  
  **************************        Volume         Depth
  Runoff Quantity Continuity     hectare-m            mm
  **************************     ---------       -------
  Total Precipitation ......         1.377         7.642
  Evaporation Loss .........         0.000         0.000
  Infiltration Loss ........         0.000         0.000
  Surface Runoff ...........         1.341         7.440
  Final Storage ............         0.038         0.213
  Continuity Error (%) .....        -0.143
  
  
  **************************        Volume        Volume
  Flow Routing Continuity        hectare-m      10^6 ltr
  **************************     ---------     ---------
  Dry Weather Inflow .......         0.265         2.653
  Wet Weather Inflow .......         1.341        13.406
  Groundwater Inflow .......         0.000         0.000
  RDII Inflow ..............         0.000         0.000
  External Inflow ..........         0.000         0.000
  External Outflow .........         0.491         4.914
  Flooding Loss ............         0.108         1.076
  Evaporation Loss .........         0.000         0.000
  Exfiltration Loss ........         0.000         0.000
  Initial Stored Volume ....         0.000         0.000
  Final Stored Volume ......         0.760         7.601
  Continuity Error (%) .....        15.368
  
  
  *************************
  Highest Continuity Errors
  *************************
  Node T2 (38.27%)
  Node T5 (28.04%)
  Node T3 (25.20%)
  Node T4 (22.74%)
  Node T6 (21.61%)
  
  
  ***************************
  Time-Step Critical Elements
  ***************************
  Link C15 (64.13%)
  
  
  ********************************
  Highest Flow Instability Indexes
  ********************************
  Link C13 (7)
  Link C3 (3)
  Link V3 (3)
  Link C23 (3)
  Link C20 (3)
  
  
  *************************
  Routing Time Step Summary
  *************************
  Minimum Time Step           :     0.45 sec
  Average Time Step           :    24.28 sec
  Maximum Time Step           :    30.00 sec
  Percent in Steady State     :     1.65
  Average Iterations per Step :     2.04
  Percent Not Converging      :     0.00
  
  
  ***************************
  Subcatchment Runoff Summary
  ***************************
  
  ------------------------------------------------------------------------------------------------------------------------------
                            Total      Total      Total      Total     Imperv       Perv      Total       Total     Peak  Runoff
                           Precip      Runon       Evap      Infil     Runoff     Runoff     Runoff      Runoff   Runoff   Coeff
  Subcatchment                 mm         mm         mm         mm         mm         mm         mm    10^6 ltr      CMS
  ------------------------------------------------------------------------------------------------------------------------------
  SC01                       7.93       0.00       0.00       0.00       7.80       0.00       7.80        2.57     0.37   0.984
  SC010                      7.93       0.00       0.00       0.00       7.75       0.00       7.75        0.91     0.12   0.977
  SC02                       7.13       0.00       0.00       0.00       7.00       0.00       7.00        1.59     0.20   0.981
  SC03                       7.29       0.00       0.00       0.00       7.21       0.00       7.21        1.30     0.19   0.989
  SC04                       7.13       0.00       0.00       0.00       6.82       0.00       6.82        0.47     0.05   0.956
  SC05                       7.93       0.00       0.00       0.00       7.79       0.00       7.79        1.22     0.17   0.982
  SC06                       8.06       0.00       0.00       0.00       7.65       0.00       7.65        2.49     0.26   0.949
  SC07                       7.13       0.00       0.00       0.00       6.82       0.00       6.82        0.32     0.04   0.957
  SC08                       7.29       0.00       0.00       0.00       7.12       0.00       7.12        1.99     0.26   0.976
  SC09                       8.06       0.00       0.00       0.00       7.83       0.00       7.83        0.54     0.06   0.971
  
  
  ******************
  Node Depth Summary
  ******************
  
  ---------------------------------------------------------------------------------
                                 Average  Maximum  Maximum  Time of Max    Reported
                                   Depth    Depth      HGL   Occurrence   Max Depth
  Node                 Type       Meters   Meters   Meters  days hr:min      Meters
  ---------------------------------------------------------------------------------
  CSO10                JUNCTION     0.16     0.29    30.29     0  01:31        0.29
  CSO7                 JUNCTION     0.11     0.16    34.16     0  03:00        0.16
  CSO8                 JUNCTION     0.17     0.33    32.33     0  01:40        0.33
  CSO9                 JUNCTION     0.14     0.23    40.23     0  01:45        0.23
  J1                   JUNCTION     0.09     0.15    34.15     0  01:30        0.14
  J10                  JUNCTION     0.12     0.21    29.21     0  01:30        0.21
  J11                  JUNCTION     0.13     0.22    31.22     0  01:41        0.22
  J12                  JUNCTION     0.36     0.81    26.81     0  05:12        0.81
  J13                  JUNCTION     0.08     0.13    29.13     0  03:00        0.13
  J14                  JUNCTION     0.10     0.19    20.19     0  04:27        0.19
  J15                  JUNCTION     0.18     0.26    15.26     0  01:48        0.26
  J16                  JUNCTION     0.09     0.15    30.15     0  01:30        0.15
  J17                  JUNCTION     0.05     0.12    20.12     0  02:55        0.12
  J18                  JUNCTION     0.07     0.13    29.13     0  01:34        0.13
  J19                  JUNCTION     0.14     0.17     8.17     0  02:37        0.17
  J2                   JUNCTION     0.06     0.08    25.08     0  04:49        0.08
  J3                   JUNCTION     0.10     0.15    18.15     0  04:35        0.15
  J4                   JUNCTION     0.13     0.20    33.20     0  02:02        0.20
  J5                   JUNCTION     0.07     0.11    32.11     0  03:02        0.11
  J6                   JUNCTION     0.06     0.11    25.11     0  04:10        0.11
  J7                   JUNCTION     0.10     0.16    39.16     0  01:49        0.16
  J8                   JUNCTION     0.13     0.19    36.19     0  03:00        0.19
  J9                   JUNCTION     0.11     0.16    29.16     0  04:00        0.16
  Out_to_WWTP          OUTFALL      0.14     0.17     6.17     0  04:53        0.17
  T1                   STORAGE      3.53     5.00    15.00     0  02:36        5.00
  T2                   STORAGE      2.20     3.74    24.74     0  06:35        3.74
  T3                   STORAGE      2.86     4.81    26.81     0  05:16        4.81
  T4                   STORAGE      1.99     3.41    30.41     0  05:12        3.40
  T5                   STORAGE      3.08     5.00    32.00     0  04:31        5.00
  T6                   STORAGE      3.33     5.00    36.00     0  03:29        5.00
  
  
  *******************
  Node Inflow Summary
  *******************
  
  -------------------------------------------------------------------------------------------------
                                  Maximum  Maximum                  Lateral       Total        Flow
                                  Lateral    Total  Time of Max      Inflow      Inflow     Balance
                                   Inflow   Inflow   Occurrence      Volume      Volume       Error
  Node                 Type           CMS      CMS  days hr:min    10^6 ltr    10^6 ltr     Percent
  -------------------------------------------------------------------------------------------------
  CSO10                JUNCTION     0.121    0.121     0  01:30           1           1       0.060
  CSO7                 JUNCTION     0.044    0.044     0  03:00        0.52        0.52       0.106
  CSO8                 JUNCTION     0.267    0.267     0  01:40        2.17        2.17       0.011
  CSO9                 JUNCTION     0.065    0.065     0  01:45       0.672       0.673       0.079
  J1                   JUNCTION     0.188    0.188     0  01:30        1.59         1.6       0.026
  J10                  JUNCTION     0.200    0.455     0  01:28        1.56        3.73      -0.029
  J11                  JUNCTION     0.000    0.267     0  01:40           0        2.17       0.097
  J12                  JUNCTION     0.000    0.531     0  01:30           0        5.97       9.875
  J13                  JUNCTION     0.208    0.208     0  03:00        1.91        1.91      -0.213
  J14                  JUNCTION     0.000    0.183     0  04:34           0        1.61       0.263
  J15                  JUNCTION     0.000    0.595     0  01:45           0        7.13       1.030
  J16                  JUNCTION     0.390    0.390     0  01:30        2.95        2.95       0.013
  J17                  JUNCTION     0.000    0.096     0  02:55           0       0.432       0.667
  J18                  JUNCTION     0.000    0.121     0  01:31           0           1       0.101
  J19                  JUNCTION     0.000    0.271     0  02:37           0        4.93       0.236
  J2                   JUNCTION     0.000    0.039     0  04:31           0       0.687       0.785
  J3                   JUNCTION     0.000    0.247     0  04:28           0        2.78       1.307
  J4                   JUNCTION     0.000    0.044     0  03:00           0        0.52       0.743
  J5                   JUNCTION     0.056    0.098     0  03:00       0.557        1.07       0.139
  J6                   JUNCTION     0.000    0.064     0  04:05           0       0.502       0.667
  J7                   JUNCTION     0.000    0.065     0  01:46           0       0.672       0.493
  J8                   JUNCTION     0.280    0.342     0  03:00        3.13         3.8       0.129
  J9                   JUNCTION     0.000    0.175     0  03:30           0        2.25       0.074
  Out_to_WWTP          OUTFALL      0.000    0.271     0  02:38           0        4.91       0.000
  T1                   STORAGE      0.000    0.578     0  01:48           0        7.06      10.002
  T2                   STORAGE      0.000    0.208     0  03:00           0        1.91      61.999
  T3                   STORAGE      0.000    0.522     0  01:30           0        5.44      33.683
  T4                   STORAGE      0.000    0.098     0  03:02           0        1.07      29.426
  T5                   STORAGE      0.000    0.187     0  01:31           0        1.59      38.967
  T6                   STORAGE      0.000    0.340     0  03:01           0        3.79      27.568
  
  
  **********************
  Node Surcharge Summary
  **********************
  
  No nodes were surcharged.
  
  
  *********************
  Node Flooding Summary
  *********************
  
  Flooding refers to all water that overflows a node, whether it ponds or not.
  --------------------------------------------------------------------------
                                                             Total   Maximum
                                 Maximum   Time of Max       Flood    Ponded
                        Hours       Rate    Occurrence      Volume     Depth
  Node                 Flooded       CMS   days hr:min    10^6 ltr    Meters
  --------------------------------------------------------------------------
  T1                      2.16     0.261      0  03:03       0.941     0.000
  T5                      0.30     0.015      0  04:36       0.010     0.000
  T6                      1.07     0.191      0  04:02       0.124     0.000
  
  
  **********************
  Storage Volume Summary
  **********************
  
  --------------------------------------------------------------------------------------------------
                         Average     Avg  Evap Exfil       Maximum     Max    Time of Max    Maximum
                          Volume    Pcnt  Pcnt  Pcnt        Volume    Pcnt     Occurrence    Outflow
  Storage Unit           1000 m3    Full  Loss  Loss       1000 m3    Full    days hr:min        CMS
  --------------------------------------------------------------------------------------------------
  T1                       0.494      71     0     0         0.700     100       0  02:36      0.271
  T2                       0.440      44     0     0         0.748      75       0  06:35      0.096
  T3                       1.487      57     0     0         2.504      96       0  05:16      0.183
  T4                       0.199      40     0     0         0.341      68       0  05:12      0.064
  T5                       0.308      62     0     0         0.500     100       0  04:31      0.039
  T6                       0.400      67     0     0         0.600     100       0  03:29      0.175
  
  
  ***********************
  Outfall Loading Summary
  ***********************
  
  -----------------------------------------------------------
                         Flow       Avg       Max       Total
                         Freq      Flow      Flow      Volume
  Outfall Node           Pcnt       CMS       CMS    10^6 ltr
  -----------------------------------------------------------
  Out_to_WWTP           99.08     0.209     0.271       4.914
  -----------------------------------------------------------
  System                99.08     0.209     0.271       4.914
  
  
  ********************
  Link Flow Summary
  ********************
  
  -----------------------------------------------------------------------------
                                 Maximum  Time of Max   Maximum    Max/    Max/
                                  |Flow|   Occurrence   |Veloc|    Full    Full
  Link                 Type          CMS  days hr:min     m/sec    Flow   Depth
  -----------------------------------------------------------------------------
  C1                   CONDUIT     0.039     0  04:49      1.05    0.01    0.12
  C10                  CONDUIT     0.340     0  03:01      1.81    0.03    0.56
  C11                  CONDUIT     0.244     0  04:35      1.76    0.01    0.10
  C12                  CONDUIT     0.175     0  04:00      1.25    0.01    0.24
  C13                  CONDUIT     0.522     0  01:30      1.62    0.03    0.70
  C14                  CONDUIT     0.271     0  02:38      2.08    0.02    0.09
  C15                  CONDUIT     0.267     0  01:40      2.58    0.85    0.61
  C16                  CONDUIT     0.265     0  01:41      1.47    0.03    0.11
  C17                  CONDUIT     0.454     0  01:30      2.42    0.02    0.22
  C18                  CONDUIT     0.208     0  03:00      3.17    0.01    0.53
  C19                  CONDUIT     0.093     0  02:55      0.98    0.03    0.18
  C2                   CONDUIT     0.063     0  04:10      1.66    0.07    0.19
  C20                  CONDUIT     0.388     0  01:31      3.22    0.01    0.10
  C21                  CONDUIT     0.121     0  01:31      1.69    0.69    0.48
  C22                  CONDUIT     0.120     0  01:35      1.31    0.05    0.24
  C23                  CONDUIT     0.578     0  01:48      1.34    0.06    0.59
  C3                   CONDUIT     0.185     0  04:28      2.22    0.07    0.17
  C4                   CONDUIT     0.187     0  01:31      3.10    0.05    0.57
  C5                   CONDUIT     0.044     0  03:00      1.34    0.74    0.70
  C6                   CONDUIT     0.043     0  02:02      1.20    0.68    0.50
  C7                   CONDUIT     0.098     0  03:02      1.57    0.02    0.55
  C8                   CONDUIT     0.065     0  01:46      1.28    0.82    0.61
  C9                   CONDUIT     0.064     0  01:49      1.06    0.22    0.35
  V1                   ORIFICE     0.271     0  02:37                      1.00
  V2                   ORIFICE     0.096     0  02:55                      1.00
  V3                   ORIFICE     0.183     0  04:34                      1.00
  V4                   ORIFICE     0.064     0  04:05                      1.00
  V5                   ORIFICE     0.039     0  04:31                      1.00
  V6                   ORIFICE     0.175     0  03:30                      1.00
  
  
  ***************************
  Flow Classification Summary
  ***************************
  
  -------------------------------------------------------------------------------------
                      Adjusted    ---------- Fraction of Time in Flow Class ---------- 
                       /Actual         Up    Down  Sub   Sup   Up    Down  Norm  Inlet 
  Conduit               Length    Dry  Dry   Dry   Crit  Crit  Crit  Crit  Ltd   Ctrl  
  -------------------------------------------------------------------------------------
  C1                      1.00   0.00  0.00  0.00  0.28  0.72  0.00  0.00  0.94  0.00
  C10                     1.00   0.00  0.00  0.00  0.96  0.04  0.00  0.00  0.98  0.00
  C11                     1.00   0.00  0.00  0.00  0.45  0.54  0.00  0.00  1.00  0.00
  C12                     1.00   0.00  0.00  0.00  0.86  0.13  0.00  0.00  1.00  0.00
  C13                     1.00   0.00  0.00  0.00  0.85  0.15  0.00  0.00  0.45  0.00
  C14                     1.00   0.01  0.00  0.00  0.01  0.98  0.00  0.00  0.23  0.00
  C15                     1.00   0.00  0.00  0.00  0.00  1.00  0.00  0.00  0.00  0.00
  C16                     1.00   0.00  0.00  0.00  0.30  0.70  0.00  0.00  0.37  0.00
  C17                     1.00   0.00  0.00  0.00  0.38  0.62  0.00  0.00  0.96  0.00
  C18                     1.00   0.00  0.00  0.00  0.95  0.05  0.00  0.00  0.97  0.00
  C19                     1.00   0.00  0.00  0.00  0.99  0.00  0.00  0.00  1.00  0.00
  C2                      1.00   0.00  0.00  0.00  0.36  0.64  0.00  0.00  0.97  0.00
  C20                     1.00   0.00  0.00  0.00  0.26  0.74  0.00  0.00  0.98  0.00
  C21                     1.00   0.00  0.00  0.00  0.00  1.00  0.00  0.00  0.00  0.00
  C22                     1.00   0.00  0.00  0.00  0.81  0.19  0.00  0.00  1.00  0.00
  C23                     1.00   0.00  0.00  0.00  0.90  0.10  0.00  0.00  0.94  0.00
  C3                      1.00   0.00  0.01  0.00  0.04  0.95  0.00  0.00  0.58  0.00
  C4                      1.00   0.00  0.00  0.00  0.96  0.04  0.00  0.00  0.98  0.00
  C5                      1.00   0.00  0.00  0.00  0.90  0.10  0.00  0.00  0.98  0.00
  C6                      1.00   0.00  0.00  0.00  0.01  0.99  0.00  0.00  0.00  0.00
  C7                      1.00   0.00  0.00  0.00  0.95  0.05  0.00  0.00  0.97  0.00
  C8                      1.00   0.00  0.00  0.00  0.00  1.00  0.00  0.00  0.00  0.00
  C9                      1.00   0.00  0.00  0.00  1.00  0.00  0.00  0.00  1.00  0.00
  
  
  *************************
  Conduit Surcharge Summary
  *************************
  
  ----------------------------------------------------------------------------
                                                           Hours        Hours 
                         --------- Hours Full --------   Above Full   Capacity
  Conduit                Both Ends  Upstream  Dnstream   Normal Flow   Limited
  ----------------------------------------------------------------------------
  C10                         0.01      0.01      4.96      0.01         0.01
  C13                         0.01      0.01      4.44      0.01         0.01
  C18                         0.01      0.01      4.08      0.01         0.01
  C23                         0.01      0.01      5.04      0.01         0.01
  C4                          0.01      0.01      5.10      0.01         0.01
  C7                          0.01      0.01      4.70      0.01         0.01
  

  Analysis begun on:  Sun Jul 17 21:36:30 2022
  Analysis ended on:  Sun Jul 17 21:36:31 2022
  Total elapsed time: 00:00:01