
  EPA STORM WATER MANAGEMENT MODEL - VERSION 5.1 (Build 5.3.0.dev0)
  --------------------------------------------------------------

  
  *********************************************************
  NOTE: The summary statistics displayed in this report are
  based on results found at every computational time step,  
  not just on results from each reporting time step.
  *********************************************************
  
  ****************
  Analysis Options
  ****************
  Flow Units ............... CMS
  Process Models:
    Rainfall/Runoff ........ YES
    RDII ................... NO
    Snowmelt ............... NO
    Groundwater ............ NO
    Flow Routing ........... YES
    Ponding Allowed ........ NO
    Water Quality .......... NO
  Infiltration Method ...... HORTON
  Flow Routing Method ...... DYNWAVE
  Surcharge Method ......... EXTRAN
  Starting Date ............ 02/10/2007 02:35:00
  Ending Date .............. 02/10/2007 22:05:00
  Antecedent Dry Days ...... 0.0
  Report Time Step ......... 00:05:00
  Wet Time Step ............ 00:05:00
  Dry Time Step ............ 01:00:00
  Routing Time Step ........ 30.00 sec
  Variable Time Step ....... YES
  Maximum Trials ........... 8
  Number of Threads ........ 1
  Head Tolerance ........... 0.001500 m
  
  
  **************************        Volume         Depth
  Runoff Quantity Continuity     hectare-m            mm
  **************************     ---------       -------
  Total Precipitation ......         1.483         8.229
  Evaporation Loss .........         0.000         0.000
  Infiltration Loss ........         0.000         0.000
  Surface Runoff ...........         1.450         8.045
  Final Storage ............         0.036         0.201
  Continuity Error (%) .....        -0.217
  
  
  **************************        Volume        Volume
  Flow Routing Continuity        hectare-m      10^6 ltr
  **************************     ---------     ---------
  Dry Weather Inflow .......         0.730         7.300
  Wet Weather Inflow .......         1.449        14.493
  Groundwater Inflow .......         0.000         0.000
  RDII Inflow ..............         0.000         0.000
  External Inflow ..........         0.000         0.000
  External Outflow .........         1.292        12.919
  Flooding Loss ............         0.059         0.588
  Evaporation Loss .........         0.000         0.000
  Exfiltration Loss ........         0.000         0.000
  Initial Stored Volume ....         0.000         0.000
  Final Stored Volume ......         0.631         6.307
  Continuity Error (%) .....         9.088
  
  
  *************************
  Highest Continuity Errors
  *************************
  Node T2 (21.80%)
  Node T5 (15.23%)
  Node T6 (14.12%)
  Node T3 (13.14%)
  Node T4 (10.30%)
  
  
  ***************************
  Time-Step Critical Elements
  ***************************
  Link C15 (17.62%)
  Link C21 (3.34%)
  Link C8 (1.07%)
  
  
  ********************************
  Highest Flow Instability Indexes
  ********************************
  Link C11 (6)
  Link C3 (6)
  Link C23 (6)
  Link V3 (4)
  Link C13 (4)
  
  
  *************************
  Routing Time Step Summary
  *************************
  Minimum Time Step           :     0.08 sec
  Average Time Step           :    28.95 sec
  Maximum Time Step           :    30.00 sec
  Percent in Steady State     :     1.15
  Average Iterations per Step :     2.07
  Percent Not Converging      :     0.08
  
  
  ***************************
  Subcatchment Runoff Summary
  ***************************
  
  ------------------------------------------------------------------------------------------------------------------------------
                            Total      Total      Total      Total     Imperv       Perv      Total       Total     Peak  Runoff
                           Precip      Runon       Evap      Infil     Runoff     Runoff     Runoff      Runoff   Runoff   Coeff
  Subcatchment                 mm         mm         mm         mm         mm         mm         mm    10^6 ltr      CMS
  ------------------------------------------------------------------------------------------------------------------------------
  SC01                       8.99       0.00       0.00       0.00       8.89       0.00       8.89        2.93     0.42   0.988
  SC010                      8.99       0.00       0.00       0.00       8.83       0.00       8.83        1.04     0.14   0.983
  SC02                       8.75       0.00       0.00       0.00       8.64       0.00       8.64        1.97     0.32   0.987
  SC03                       6.84       0.00       0.00       0.00       6.77       0.00       6.77        1.22     0.10   0.990
  SC04                       8.75       0.00       0.00       0.00       8.45       0.00       8.45        0.58     0.07   0.966
  SC05                       8.99       0.00       0.00       0.00       8.87       0.00       8.87        1.38     0.20   0.987
  SC06                       8.23       0.00       0.00       0.00       7.84       0.00       7.84        2.55     0.28   0.953
  SC07                       8.75       0.00       0.00       0.00       8.46       0.00       8.46        0.40     0.05   0.966
  SC08                       6.84       0.00       0.00       0.00       6.67       0.00       6.67        1.87     0.12   0.976
  SC09                       8.23       0.00       0.00       0.00       8.01       0.00       8.01        0.55     0.08   0.974
  
  
  ******************
  Node Depth Summary
  ******************
  
  ---------------------------------------------------------------------------------
                                 Average  Maximum  Maximum  Time of Max    Reported
                                   Depth    Depth      HGL   Occurrence   Max Depth
  Node                 Type       Meters   Meters   Meters  days hr:min      Meters
  ---------------------------------------------------------------------------------
  CSO10                JUNCTION     0.10     0.33    30.33     0  16:30        0.33
  CSO7                 JUNCTION     0.08     0.20    34.20     0  16:35        0.19
  CSO8                 JUNCTION     0.10     0.21    32.21     0  13:30        0.21
  CSO9                 JUNCTION     0.09     0.68    40.68     0  16:40        0.30
  J1                   JUNCTION     0.06     0.15    34.15     0  16:30        0.15
  J10                  JUNCTION     0.08     0.15    29.15     0  13:34        0.15
  J11                  JUNCTION     0.08     0.15    31.15     0  13:34        0.15
  J12                  JUNCTION     0.12     0.22    26.22     0  17:46        0.22
  J13                  JUNCTION     0.05     0.16    29.16     0  16:35        0.15
  J14                  JUNCTION     0.11     0.18    20.18     0  16:52        0.18
  J15                  JUNCTION     0.15     0.28    15.28     0  16:32        0.28
  J16                  JUNCTION     0.06     0.16    30.16     0  16:30        0.16
  J17                  JUNCTION     0.06     0.12    20.12     0  14:12        0.12
  J18                  JUNCTION     0.05     0.14    29.14     0  16:31        0.14
  J19                  JUNCTION     0.14     0.17     8.17     0  16:25        0.17
  J2                   JUNCTION     0.06     0.08    25.08     0  17:16        0.08
  J3                   JUNCTION     0.10     0.15    18.15     0  19:25        0.15
  J4                   JUNCTION     0.10     0.22    33.22     0  16:39        0.22
  J5                   JUNCTION     0.05     0.12    32.12     0  16:38        0.12
  J6                   JUNCTION     0.06     0.10    25.10     0  18:20        0.10
  J7                   JUNCTION     0.07     0.18    39.18     0  16:45        0.17
  J8                   JUNCTION     0.09     0.20    36.20     0  16:43        0.20
  J9                   JUNCTION     0.09     0.16    29.16     0  19:25        0.16
  Out_to_WWTP          OUTFALL      0.14     0.17     6.17     0  18:55        0.17
  T1                   STORAGE      2.72     5.00    15.00     0  16:24        5.00
  T2                   STORAGE      1.65     3.45    24.45     0  17:46        3.45
  T3                   STORAGE      2.17     4.21    26.21     0  17:30        4.21
  T4                   STORAGE      0.95     2.62    29.62     0  18:15        2.62
  T5                   STORAGE      2.17     4.46    31.46     0  17:15        4.46
  T6                   STORAGE      1.57     4.43    35.43     0  19:20        4.43
  
  
  *******************
  Node Inflow Summary
  *******************
  
  -------------------------------------------------------------------------------------------------
                                  Maximum  Maximum                  Lateral       Total        Flow
                                  Lateral    Total  Time of Max      Inflow      Inflow     Balance
                                   Inflow   Inflow   Occurrence      Volume      Volume       Error
  Node                 Type           CMS      CMS  days hr:min    10^6 ltr    10^6 ltr     Percent
  -------------------------------------------------------------------------------------------------
  CSO10                JUNCTION     0.142    0.142     0  16:30         1.3         1.3       0.007
  CSO7                 JUNCTION     0.057    0.057     0  16:35       0.945       0.945       0.019
  CSO8                 JUNCTION     0.127    0.127     0  13:30        2.32        2.32      -0.004
  CSO9                 JUNCTION     0.089    0.089     0  16:40        0.92        0.92       0.018
  J1                   JUNCTION     0.211    0.211     0  16:30        2.43        2.44      -0.043
  J10                  JUNCTION     0.113    0.217     0  13:31        1.94        4.26      -0.012
  J11                  JUNCTION     0.000    0.127     0  13:30           0        2.32       0.064
  J12                  JUNCTION     0.000    0.292     0  13:30           0        8.22       0.649
  J13                  JUNCTION     0.337    0.337     0  16:35        2.84        2.84      -0.153
  J14                  JUNCTION     0.000    0.174     0  17:30           0        5.19       0.159
  J15                  JUNCTION     0.000    0.738     0  16:30           0          15       0.511
  J16                  JUNCTION     0.438    0.438     0  16:30        3.97        3.97      -0.031
  J17                  JUNCTION     0.000    0.094     0  14:05           0        1.56       0.130
  J18                  JUNCTION     0.000    0.141     0  16:30           0         1.3       0.035
  J19                  JUNCTION     0.000    0.271     0  16:24           0        12.9       0.094
  J2                   JUNCTION     0.000    0.037     0  17:15           0        1.69       0.302
  J3                   JUNCTION     0.000    0.253     0  19:24           0        8.21       0.408
  J4                   JUNCTION     0.000    0.056     0  16:35           0       0.945       0.214
  J5                   JUNCTION     0.074    0.119     0  16:36       0.822        1.77       0.021
  J6                   JUNCTION     0.000    0.058     0  18:15           0        1.34       0.180
  J7                   JUNCTION     0.000    0.086     0  16:41           0        0.92       0.186
  J8                   JUNCTION     0.307    0.366     0  16:41        4.31        5.23       0.043
  J9                   JUNCTION     0.000    0.164     0  19:20           0        3.98       0.273
  Out_to_WWTP          OUTFALL      0.000    0.271     0  16:25           0        12.9       0.000
  T1                   STORAGE      0.000    0.708     0  16:32           0        14.9       5.414
  T2                   STORAGE      0.000    0.329     0  16:36           0        2.85      27.881
  T3                   STORAGE      0.000    0.270     0  13:32           0        8.17      15.121
  T4                   STORAGE      0.000    0.118     0  16:38           0        1.76      11.484
  T5                   STORAGE      0.000    0.210     0  16:30           0        2.44      17.963
  T6                   STORAGE      0.000    0.361     0  16:43           0        5.23      16.443
  
  
  **********************
  Node Surcharge Summary
  **********************
  
  Surcharging occurs when water rises above the top of the highest conduit.
  ---------------------------------------------------------------------
                                               Max. Height   Min. Depth
                                   Hours       Above Crown    Below Rim
  Node                 Type      Surcharged         Meters       Meters
  ---------------------------------------------------------------------
  CSO9                 JUNCTION        0.06          0.360        1.322
  
  
  *********************
  Node Flooding Summary
  *********************
  
  Flooding refers to all water that overflows a node, whether it ponds or not.
  --------------------------------------------------------------------------
                                                             Total   Maximum
                                 Maximum   Time of Max       Flood    Ponded
                        Hours       Rate    Occurrence      Volume     Depth
  Node                 Flooded       CMS   days hr:min    10^6 ltr    Meters
  --------------------------------------------------------------------------
  T1                      1.47     0.437      0  16:32       0.587     0.000
  
  
  **********************
  Storage Volume Summary
  **********************
  
  --------------------------------------------------------------------------------------------------
                         Average     Avg  Evap Exfil       Maximum     Max    Time of Max    Maximum
                          Volume    Pcnt  Pcnt  Pcnt        Volume    Pcnt     Occurrence    Outflow
  Storage Unit           1000 m3    Full  Loss  Loss       1000 m3    Full    days hr:min        CMS
  --------------------------------------------------------------------------------------------------
  T1                       0.380      54     0     0         0.700     100       0  16:24      0.271
  T2                       0.331      33     0     0         0.689      69       0  17:46      0.094
  T3                       1.129      43     0     0         2.191      84       0  17:30      0.174
  T4                       0.095      19     0     0         0.262      52       0  18:15      0.058
  T5                       0.217      43     0     0         0.446      89       0  17:15      0.037
  T6                       0.188      31     0     0         0.531      89       0  19:20      0.164
  
  
  ***********************
  Outfall Loading Summary
  ***********************
  
  -----------------------------------------------------------
                         Flow       Avg       Max       Total
                         Freq      Flow      Flow      Volume
  Outfall Node           Pcnt       CMS       CMS    10^6 ltr
  -----------------------------------------------------------
  Out_to_WWTP           99.17     0.186     0.271      12.918
  -----------------------------------------------------------
  System                99.17     0.186     0.271      12.918
  
  
  ********************
  Link Flow Summary
  ********************
  
  -----------------------------------------------------------------------------
                                 Maximum  Time of Max   Maximum    Max/    Max/
                                  |Flow|   Occurrence   |Veloc|    Full    Full
  Link                 Type          CMS  days hr:min     m/sec    Flow   Depth
  -----------------------------------------------------------------------------
  C1                   CONDUIT     0.037     0  17:17      1.05    0.01    0.11
  C10                  CONDUIT     0.361     0  16:43      2.35    0.04    0.57
  C11                  CONDUIT     0.240     0  19:25      2.08    0.01    0.10
  C12                  CONDUIT     0.149     0  17:05      1.64    0.01    0.09
  C13                  CONDUIT     0.270     0  13:32      1.24    0.02    0.55
  C14                  CONDUIT     0.271     0  16:25      2.08    0.02    0.09
  C15                  CONDUIT     0.127     0  13:30      2.19    0.40    0.40
  C16                  CONDUIT     0.124     0  13:35      1.16    0.01    0.07
  C17                  CONDUIT     0.216     0  13:34      1.86    0.01    0.08
  C18                  CONDUIT     0.329     0  16:36      1.12    0.01    0.54
  C19                  CONDUIT     0.093     0  14:13      1.30    0.03    0.17
  C2                   CONDUIT     0.056     0  18:20      1.52    0.06    0.21
  C20                  CONDUIT     0.435     0  16:30      2.33    0.01    0.11
  C21                  CONDUIT     0.141     0  16:30      1.74    0.81    0.53
  C22                  CONDUIT     0.140     0  16:31      1.33    0.06    0.26
  C23                  CONDUIT     0.708     0  16:32      1.19    0.08    0.59
  C3                   CONDUIT     0.176     0  17:33      2.19    0.07    0.16
  C4                   CONDUIT     0.210     0  16:30      1.11    0.05    0.58
  C5                   CONDUIT     0.056     0  16:35      1.28    0.96    0.81
  C6                   CONDUIT     0.051     0  16:39      1.24    0.81    0.57
  C7                   CONDUIT     0.118     0  16:38      0.85    0.03    0.56
  C8                   CONDUIT     0.086     0  16:41      1.74    1.08    0.77
  C9                   CONDUIT     0.077     0  16:46      1.17    0.26    0.37
  V1                   ORIFICE     0.271     0  16:24                      1.00
  V2                   ORIFICE     0.094     0  14:05                      1.00
  V3                   ORIFICE     0.174     0  17:30                      1.00
  V4                   ORIFICE     0.058     0  18:15                      1.00
  V5                   ORIFICE     0.037     0  17:15                      1.00
  V6                   ORIFICE     0.164     0  19:20                      1.00
  
  
  ***************************
  Flow Classification Summary
  ***************************
  
  -------------------------------------------------------------------------------------
                      Adjusted    ---------- Fraction of Time in Flow Class ---------- 
                       /Actual         Up    Down  Sub   Sup   Up    Down  Norm  Inlet 
  Conduit               Length    Dry  Dry   Dry   Crit  Crit  Crit  Crit  Ltd   Ctrl  
  -------------------------------------------------------------------------------------
  C1                      1.00   0.00  0.00  0.00  0.45  0.55  0.00  0.00  0.96  0.00
  C10                     1.00   0.00  0.00  0.00  0.96  0.04  0.00  0.00  0.98  0.00
  C11                     1.00   0.00  0.00  0.00  0.21  0.79  0.00  0.00  1.00  0.00
  C12                     1.00   0.00  0.00  0.00  0.46  0.54  0.00  0.00  0.95  0.00
  C13                     1.00   0.00  0.00  0.00  0.88  0.12  0.00  0.00  0.84  0.00
  C14                     1.00   0.01  0.00  0.00  0.01  0.99  0.00  0.00  0.58  0.00
  C15                     1.00   0.08  0.00  0.00  0.00  0.91  0.00  0.00  0.00  0.00
  C16                     1.00   0.00  0.08  0.00  0.29  0.62  0.00  0.00  0.33  0.00
  C17                     1.00   0.00  0.00  0.00  0.25  0.75  0.00  0.00  0.99  0.00
  C18                     1.00   0.00  0.00  0.00  0.89  0.11  0.00  0.00  0.97  0.00
  C19                     1.00   0.00  0.00  0.00  0.89  0.11  0.00  0.00  1.00  0.00
  C2                      1.00   0.00  0.00  0.00  0.45  0.55  0.00  0.00  1.00  0.00
  C20                     1.00   0.00  0.00  0.00  0.71  0.29  0.00  0.00  0.99  0.00
  C21                     1.00   0.00  0.00  0.00  0.00  1.00  0.00  0.00  0.00  0.00
  C22                     1.00   0.00  0.00  0.00  0.98  0.02  0.00  0.00  1.00  0.00
  C23                     1.00   0.00  0.00  0.00  0.90  0.10  0.00  0.00  0.95  0.00
  C3                      1.00   0.00  0.00  0.00  0.05  0.94  0.00  0.00  0.48  0.00
  C4                      1.00   0.00  0.00  0.00  0.90  0.10  0.00  0.00  0.97  0.00
  C5                      1.00   0.00  0.00  0.00  0.89  0.11  0.00  0.00  0.99  0.00
  C6                      1.00   0.00  0.00  0.00  0.01  0.99  0.00  0.00  0.00  0.00
  C7                      1.00   0.00  0.00  0.00  0.90  0.10  0.00  0.00  0.96  0.00
  C8                      1.00   0.00  0.00  0.00  0.05  0.95  0.00  0.00  0.00  0.00
  C9                      1.00   0.00  0.00  0.00  0.99  0.00  0.00  0.00  1.00  0.00
  
  
  *************************
  Conduit Surcharge Summary
  *************************
  
  ----------------------------------------------------------------------------
                                                           Hours        Hours 
                         --------- Hours Full --------   Above Full   Capacity
  Conduit                Both Ends  Upstream  Dnstream   Normal Flow   Limited
  ----------------------------------------------------------------------------
  C10                         0.01      0.01      6.24      0.01         0.01
  C13                         0.01      0.01     10.18      0.01         0.01
  C18                         0.01      0.01      6.47      0.01         0.01
  C23                         0.01      0.01     16.13      0.01         0.01
  C4                          0.01      0.01     16.23      0.01         0.01
  C7                          0.01      0.01      3.73      0.01         0.01
  C8                          0.01      0.06      0.01      0.05         0.01
  

  Analysis begun on:  Sun Jul 17 19:39:10 2022
  Analysis ended on:  Sun Jul 17 19:39:12 2022
  Total elapsed time: 00:00:02