
  EPA STORM WATER MANAGEMENT MODEL - VERSION 5.1 (Build 5.3.0.dev0)
  --------------------------------------------------------------

  
  *********************************************************
  NOTE: The summary statistics displayed in this report are
  based on results found at every computational time step,  
  not just on results from each reporting time step.
  *********************************************************
  
  ****************
  Analysis Options
  ****************
  Flow Units ............... CMS
  Process Models:
    Rainfall/Runoff ........ YES
    RDII ................... NO
    Snowmelt ............... NO
    Groundwater ............ NO
    Flow Routing ........... YES
    Ponding Allowed ........ NO
    Water Quality .......... NO
  Infiltration Method ...... HORTON
  Flow Routing Method ...... DYNWAVE
  Surcharge Method ......... EXTRAN
  Starting Date ............ 05/10/2007 22:30:00
  Ending Date .............. 05/11/2007 16:35:00
  Antecedent Dry Days ...... 0.0
  Report Time Step ......... 00:05:00
  Wet Time Step ............ 00:05:00
  Dry Time Step ............ 01:00:00
  Routing Time Step ........ 30.00 sec
  Variable Time Step ....... YES
  Maximum Trials ........... 8
  Number of Threads ........ 1
  Head Tolerance ........... 0.001500 m
  
  
  **************************        Volume         Depth
  Runoff Quantity Continuity     hectare-m            mm
  **************************     ---------       -------
  Total Precipitation ......         1.465         8.130
  Evaporation Loss .........         0.000         0.000
  Infiltration Loss ........         0.000         0.000
  Surface Runoff ...........         1.433         7.950
  Final Storage ............         0.034         0.187
  Continuity Error (%) .....        -0.082
  
  
  **************************        Volume        Volume
  Flow Routing Continuity        hectare-m      10^6 ltr
  **************************     ---------     ---------
  Dry Weather Inflow .......         0.584         5.842
  Wet Weather Inflow .......         1.432        14.325
  Groundwater Inflow .......         0.000         0.000
  RDII Inflow ..............         0.000         0.000
  External Inflow ..........         0.000         0.000
  External Outflow .........         1.042        10.419
  Flooding Loss ............         0.093         0.933
  Evaporation Loss .........         0.000         0.000
  Exfiltration Loss ........         0.000         0.000
  Initial Stored Volume ....         0.000         0.000
  Final Stored Volume ......         0.663         6.630
  Continuity Error (%) .....        10.829
  
  
  *************************
  Highest Continuity Errors
  *************************
  Node T2 (28.18%)
  Node T5 (19.30%)
  Node T4 (18.11%)
  Node T6 (16.53%)
  Node T3 (15.09%)
  
  
  ***************************
  Time-Step Critical Elements
  ***************************
  Link C15 (29.07%)
  
  
  ********************************
  Highest Flow Instability Indexes
  ********************************
  Link C15 (3)
  Link C20 (2)
  Link C18 (1)
  Link C4 (1)
  Link C17 (1)
  
  
  *************************
  Routing Time Step Summary
  *************************
  Minimum Time Step           :     0.02 sec
  Average Time Step           :    28.11 sec
  Maximum Time Step           :    30.00 sec
  Percent in Steady State     :     7.28
  Average Iterations per Step :     2.00
  Percent Not Converging      :     0.00
  
  
  ***************************
  Subcatchment Runoff Summary
  ***************************
  
  ------------------------------------------------------------------------------------------------------------------------------
                            Total      Total      Total      Total     Imperv       Perv      Total       Total     Peak  Runoff
                           Precip      Runon       Evap      Infil     Runoff     Runoff     Runoff      Runoff   Runoff   Coeff
  Subcatchment                 mm         mm         mm         mm         mm         mm         mm    10^6 ltr      CMS
  ------------------------------------------------------------------------------------------------------------------------------
  SC01                       8.00       0.00       0.00       0.00       7.88       0.00       7.88        2.60     0.23   0.985
  SC010                      8.00       0.00       0.00       0.00       7.83       0.00       7.83        0.92     0.08   0.978
  SC02                       7.88       0.00       0.00       0.00       7.77       0.00       7.77        1.77     0.13   0.986
  SC03                       8.41       0.00       0.00       0.00       8.34       0.00       8.34        1.50     0.11   0.991
  SC04                       7.88       0.00       0.00       0.00       7.64       0.00       7.64        0.53     0.04   0.970
  SC05                       8.00       0.00       0.00       0.00       7.86       0.00       7.86        1.23     0.11   0.983
  SC06                       8.22       0.00       0.00       0.00       7.84       0.00       7.84        2.55     0.11   0.954
  SC07                       7.88       0.00       0.00       0.00       7.64       0.00       7.64        0.36     0.02   0.970
  SC08                       8.41       0.00       0.00       0.00       8.28       0.00       8.28        2.32     0.15   0.984
  SC09                       8.22       0.00       0.00       0.00       8.00       0.00       8.00        0.55     0.03   0.973
  
  
  ******************
  Node Depth Summary
  ******************
  
  ---------------------------------------------------------------------------------
                                 Average  Maximum  Maximum  Time of Max    Reported
                                   Depth    Depth      HGL   Occurrence   Max Depth
  Node                 Type       Meters   Meters   Meters  days hr:min      Meters
  ---------------------------------------------------------------------------------
  CSO10                JUNCTION     0.09     0.23    30.23     0  11:15        0.23
  CSO7                 JUNCTION     0.08     0.14    34.14     0  11:15        0.14
  CSO8                 JUNCTION     0.11     0.24    32.24     0  08:30        0.24
  CSO9                 JUNCTION     0.09     0.15    40.15     0  14:46        0.15
  J1                   JUNCTION     0.06     0.12    34.12     0  11:15        0.12
  J10                  JUNCTION     0.08     0.16    29.16     0  08:33        0.16
  J11                  JUNCTION     0.09     0.17    31.17     0  08:33        0.17
  J12                  JUNCTION     0.12     0.18    26.18     0  08:37        0.18
  J13                  JUNCTION     0.05     0.10    29.10     0  11:15        0.10
  J14                  JUNCTION     0.11     0.14    20.14     0  16:25        0.14
  J15                  JUNCTION     0.14     0.24    15.24     0  11:17        0.24
  J16                  JUNCTION     0.05     0.12    30.12     0  11:15        0.12
  J17                  JUNCTION     0.05     0.07    20.07     0  16:03        0.07
  J18                  JUNCTION     0.05     0.10    29.10     0  11:16        0.10
  J19                  JUNCTION     0.12     0.17     8.17     0  11:23        0.17
  J2                   JUNCTION     0.05     0.07    25.07     0  16:18        0.07
  J3                   JUNCTION     0.10     0.13    18.13     0  16:19        0.13
  J4                   JUNCTION     0.09     0.17    33.17     0  11:17        0.17
  J5                   JUNCTION     0.05     0.09    32.09     0  11:16        0.09
  J6                   JUNCTION     0.05     0.07    25.07     0  16:03        0.07
  J7                   JUNCTION     0.07     0.12    39.12     0  15:09        0.12
  J8                   JUNCTION     0.09     0.14    36.14     0  15:11        0.14
  J9                   JUNCTION     0.08     0.11    29.11     0  16:23        0.11
  Out_to_WWTP          OUTFALL      0.12     0.17     6.17     0  11:21        0.17
  T1                   STORAGE      2.41     5.00    15.00     0  11:21        5.00
  T2                   STORAGE      1.64     3.69    24.69     0  16:01        3.69
  T3                   STORAGE      2.06     4.01    26.01     0  16:22        4.01
  T4                   STORAGE      1.63     3.82    30.82     0  16:01        3.82
  T5                   STORAGE      1.78     4.18    31.18     0  16:17        4.18
  T6                   STORAGE      2.39     5.00    36.00     0  14:53        5.00
  
  
  *******************
  Node Inflow Summary
  *******************
  
  -------------------------------------------------------------------------------------------------
                                  Maximum  Maximum                  Lateral       Total        Flow
                                  Lateral    Total  Time of Max      Inflow      Inflow     Balance
                                   Inflow   Inflow   Occurrence      Volume      Volume       Error
  Node                 Type           CMS      CMS  days hr:min    10^6 ltr    10^6 ltr     Percent
  -------------------------------------------------------------------------------------------------
  CSO10                JUNCTION     0.081    0.081     0  11:15        1.13        1.13      -0.105
  CSO7                 JUNCTION     0.034    0.034     0  11:15       0.795       0.796      -0.226
  CSO8                 JUNCTION     0.158    0.158     0  08:30        2.71        2.71       0.023
  CSO9                 JUNCTION     0.035    0.035     0  14:45       0.843       0.845      -0.151
  J1                   JUNCTION     0.124    0.124     0  11:15        2.06        2.06      -0.246
  J10                  JUNCTION     0.117    0.267     0  08:32        2.07        4.78       0.062
  J11                  JUNCTION     0.000    0.158     0  08:30           0        2.71       0.207
  J12                  JUNCTION     0.000    0.306     0  08:34           0        7.79       0.366
  J13                  JUNCTION     0.143    0.143     0  11:15        2.46        2.47      -0.217
  J14                  JUNCTION     0.000    0.111     0  16:22           0        4.54       0.149
  J15                  JUNCTION     0.000    0.497     0  11:15           0        12.3       0.543
  J16                  JUNCTION     0.244    0.244     0  11:05        3.42        3.43      -0.203
  J17                  JUNCTION     0.000    0.029     0  16:01           0        1.08       0.510
  J18                  JUNCTION     0.000    0.081     0  11:15           0        1.13      -0.113
  J19                  JUNCTION     0.000    0.271     0  11:22           0        10.4       0.114
  J2                   JUNCTION     0.000    0.036     0  16:17           0         1.3       0.412
  J3                   JUNCTION     0.000    0.171     0  16:17           0        6.71       0.520
  J4                   JUNCTION     0.000    0.034     0  11:15           0       0.798       0.433
  J5                   JUNCTION     0.040    0.074     0  11:15       0.717        1.51       0.057
  J6                   JUNCTION     0.000    0.025     0  16:01           0        0.89       0.427
  J7                   JUNCTION     0.000    0.035     0  14:47           0       0.846       0.124
  J8                   JUNCTION     0.151    0.185     0  15:10        3.95         4.8      -0.090
  J9                   JUNCTION     0.000    0.075     0  14:54           0        3.03       0.558
  Out_to_WWTP          OUTFALL      0.000    0.271     0  11:23           0        10.4       0.000
  T1                   STORAGE      0.000    0.494     0  11:17           0        12.2       5.940
  T2                   STORAGE      0.000    0.143     0  11:15           0        2.47      39.242
  T3                   STORAGE      0.000    0.301     0  08:37           0        7.76      17.778
  T4                   STORAGE      0.000    0.073     0  11:17           0        1.51      22.114
  T5                   STORAGE      0.000    0.123     0  11:15           0        2.07      23.920
  T6                   STORAGE      0.000    0.185     0  15:11           0        4.81      19.809
  
  
  **********************
  Node Surcharge Summary
  **********************
  
  No nodes were surcharged.
  
  
  *********************
  Node Flooding Summary
  *********************
  
  Flooding refers to all water that overflows a node, whether it ponds or not.
  --------------------------------------------------------------------------
                                                             Total   Maximum
                                 Maximum   Time of Max       Flood    Ponded
                        Hours       Rate    Occurrence      Volume     Depth
  Node                 Flooded       CMS   days hr:min    10^6 ltr    Meters
  --------------------------------------------------------------------------
  T1                      2.11     0.218      0  11:21       0.512     0.000
  T6                      1.73     0.109      0  15:11       0.421     0.000
  
  
  **********************
  Storage Volume Summary
  **********************
  
  --------------------------------------------------------------------------------------------------
                         Average     Avg  Evap Exfil       Maximum     Max    Time of Max    Maximum
                          Volume    Pcnt  Pcnt  Pcnt        Volume    Pcnt     Occurrence    Outflow
  Storage Unit           1000 m3    Full  Loss  Loss       1000 m3    Full    days hr:min        CMS
  --------------------------------------------------------------------------------------------------
  T1                       0.338      48     0     0         0.700     100       0  11:21      0.271
  T2                       0.327      33     0     0         0.737      74       0  16:01      0.029
  T3                       1.072      41     0     0         2.088      80       0  16:22      0.111
  T4                       0.163      33     0     0         0.382      76       0  16:01      0.025
  T5                       0.178      36     0     0         0.418      84       0  16:17      0.036
  T6                       0.287      48     0     0         0.600     100       0  14:53      0.075
  
  
  ***********************
  Outfall Loading Summary
  ***********************
  
  -----------------------------------------------------------
                         Flow       Avg       Max       Total
                         Freq      Flow      Flow      Volume
  Outfall Node           Pcnt       CMS       CMS    10^6 ltr
  -----------------------------------------------------------
  Out_to_WWTP           99.26     0.161     0.271      10.419
  -----------------------------------------------------------
  System                99.26     0.161     0.271      10.419
  
  
  ********************
  Link Flow Summary
  ********************
  
  -----------------------------------------------------------------------------
                                 Maximum  Time of Max   Maximum    Max/    Max/
                                  |Flow|   Occurrence   |Veloc|    Full    Full
  Link                 Type          CMS  days hr:min     m/sec    Flow   Depth
  -----------------------------------------------------------------------------
  C1                   CONDUIT     0.036     0  16:19      0.84    0.01    0.10
  C10                  CONDUIT     0.185     0  15:11      2.18    0.02    0.55
  C11                  CONDUIT     0.171     0  16:19      1.64    0.01    0.09
  C12                  CONDUIT     0.075     0  16:18      1.10    0.01    0.07
  C13                  CONDUIT     0.301     0  08:37      1.18    0.02    0.54
  C14                  CONDUIT     0.271     0  11:23      2.08    0.02    0.09
  C15                  CONDUIT     0.158     0  08:30      2.26    0.50    0.45
  C16                  CONDUIT     0.155     0  08:33      1.24    0.01    0.08
  C17                  CONDUIT     0.265     0  08:34      2.03    0.01    0.09
  C18                  CONDUIT     0.143     0  11:15      1.40    0.01    0.53
  C19                  CONDUIT     0.029     0  16:04      0.55    0.01    0.15
  C2                   CONDUIT     0.025     0  16:03      0.80    0.03    0.17
  C20                  CONDUIT     0.244     0  11:15      2.77    0.01    0.09
  C21                  CONDUIT     0.081     0  11:15      1.54    0.46    0.38
  C22                  CONDUIT     0.081     0  11:16      1.02    0.04    0.21
  C23                  CONDUIT     0.494     0  11:17      0.95    0.05    0.58
  C3                   CONDUIT     0.111     0  16:23      1.72    0.04    0.14
  C4                   CONDUIT     0.123     0  11:15      6.63    0.03    0.56
  C5                   CONDUIT     0.034     0  11:15      1.50    0.58    0.60
  C6                   CONDUIT     0.034     0  11:17      1.14    0.54    0.44
  C7                   CONDUIT     0.073     0  11:17      0.93    0.02    0.55
  C8                   CONDUIT     0.035     0  14:47      1.39    0.43    0.42
  C9                   CONDUIT     0.034     0  15:09      0.86    0.12    0.26
  V1                   ORIFICE     0.271     0  11:22                      1.00
  V2                   ORIFICE     0.029     0  16:01                      0.24
  V3                   ORIFICE     0.111     0  16:22                      0.65
  V4                   ORIFICE     0.025     0  16:01                      0.35
  V5                   ORIFICE     0.036     0  16:17                      1.00
  V6                   ORIFICE     0.075     0  14:54                      0.43
  
  
  ***************************
  Flow Classification Summary
  ***************************
  
  -------------------------------------------------------------------------------------
                      Adjusted    ---------- Fraction of Time in Flow Class ---------- 
                       /Actual         Up    Down  Sub   Sup   Up    Down  Norm  Inlet 
  Conduit               Length    Dry  Dry   Dry   Crit  Crit  Crit  Crit  Ltd   Ctrl  
  -------------------------------------------------------------------------------------
  C1                      1.00   0.00  0.00  0.00  0.62  0.38  0.00  0.00  0.96  0.00
  C10                     1.00   0.00  0.00  0.00  0.94  0.06  0.00  0.00  0.98  0.00
  C11                     1.00   0.00  0.00  0.00  0.06  0.94  0.00  0.00  1.00  0.00
  C12                     1.00   0.00  0.00  0.00  0.55  0.45  0.00  0.00  0.96  0.00
  C13                     1.00   0.00  0.00  0.00  0.88  0.12  0.00  0.00  0.89  0.00
  C14                     1.00   0.00  0.00  0.00  0.01  0.99  0.00  0.00  0.57  0.00
  C15                     1.00   0.05  0.00  0.00  0.00  0.94  0.00  0.00  0.00  0.00
  C16                     1.00   0.00  0.05  0.00  0.31  0.64  0.00  0.00  0.23  0.00
  C17                     1.00   0.00  0.00  0.00  0.22  0.78  0.00  0.00  0.99  0.00
  C18                     1.00   0.00  0.00  0.00  0.89  0.11  0.00  0.00  0.98  0.00
  C19                     1.00   0.00  0.00  0.00  1.00  0.00  0.00  0.00  1.00  0.00
  C2                      1.00   0.00  0.00  0.00  0.94  0.06  0.00  0.00  1.00  0.00
  C20                     1.00   0.00  0.00  0.00  0.61  0.39  0.00  0.00  0.99  0.00
  C21                     1.00   0.00  0.00  0.00  0.00  1.00  0.00  0.00  0.00  0.00
  C22                     1.00   0.00  0.00  0.00  1.00  0.00  0.00  0.00  1.00  0.00
  C23                     1.00   0.00  0.00  0.00  0.86  0.14  0.00  0.00  0.96  0.00
  C3                      1.00   0.00  0.00  0.00  0.04  0.96  0.00  0.00  0.07  0.00
  C4                      1.00   0.00  0.00  0.00  0.86  0.14  0.00  0.00  0.98  0.00
  C5                      1.00   0.00  0.00  0.00  0.90  0.10  0.00  0.00  0.99  0.00
  C6                      1.00   0.00  0.00  0.00  0.01  0.99  0.00  0.00  0.00  0.00
  C7                      1.00   0.00  0.00  0.00  0.88  0.12  0.00  0.00  0.97  0.00
  C8                      1.00   0.00  0.00  0.00  0.01  0.99  0.00  0.00  0.00  0.00
  C9                      1.00   0.00  0.00  0.00  1.00  0.00  0.00  0.00  1.00  0.00
  
  
  *************************
  Conduit Surcharge Summary
  *************************
  
  ----------------------------------------------------------------------------
                                                           Hours        Hours 
                         --------- Hours Full --------   Above Full   Capacity
  Conduit                Both Ends  Upstream  Dnstream   Normal Flow   Limited
  ----------------------------------------------------------------------------
  C10                         0.01      0.01      9.57      0.01         0.01
  C13                         0.01      0.01      9.09      0.01         0.01
  C18                         0.01      0.01      7.37      0.01         0.01
  C23                         0.01      0.01      8.96      0.01         0.01
  C4                          0.01      0.01      8.84      0.01         0.01
  C7                          0.01      0.01      8.72      0.01         0.01
  

  Analysis begun on:  Sun Jul 17 19:56:25 2022
  Analysis ended on:  Sun Jul 17 19:56:25 2022
  Total elapsed time: < 1 sec