
  EPA STORM WATER MANAGEMENT MODEL - VERSION 5.1 (Build 5.3.0.dev0)
  --------------------------------------------------------------

  
  *********************************************************
  NOTE: The summary statistics displayed in this report are
  based on results found at every computational time step,  
  not just on results from each reporting time step.
  *********************************************************
  
  ****************
  Analysis Options
  ****************
  Flow Units ............... CMS
  Process Models:
    Rainfall/Runoff ........ YES
    RDII ................... NO
    Snowmelt ............... NO
    Groundwater ............ NO
    Flow Routing ........... YES
    Ponding Allowed ........ NO
    Water Quality .......... NO
  Infiltration Method ...... HORTON
  Flow Routing Method ...... DYNWAVE
  Surcharge Method ......... EXTRAN
  Starting Date ............ 04/05/2007 09:20:00
  Ending Date .............. 04/05/2007 23:05:00
  Antecedent Dry Days ...... 0.0
  Report Time Step ......... 00:05:00
  Wet Time Step ............ 00:05:00
  Dry Time Step ............ 01:00:00
  Routing Time Step ........ 30.00 sec
  Variable Time Step ....... YES
  Maximum Trials ........... 8
  Number of Threads ........ 1
  Head Tolerance ........... 0.001500 m
  
  
  **************************        Volume         Depth
  Runoff Quantity Continuity     hectare-m            mm
  **************************     ---------       -------
  Total Precipitation ......         1.294         7.182
  Evaporation Loss .........         0.000         0.000
  Infiltration Loss ........         0.000         0.000
  Surface Runoff ...........         1.264         7.017
  Final Storage ............         0.030         0.169
  Continuity Error (%) .....        -0.060
  
  
  **************************        Volume        Volume
  Flow Routing Continuity        hectare-m      10^6 ltr
  **************************     ---------     ---------
  Dry Weather Inflow .......         0.546         5.462
  Wet Weather Inflow .......         1.264        12.642
  Groundwater Inflow .......         0.000         0.000
  RDII Inflow ..............         0.000         0.000
  External Inflow ..........         0.000         0.000
  External Outflow .........         1.002        10.020
  Flooding Loss ............         0.000         0.000
  Evaporation Loss .........         0.000         0.000
  Exfiltration Loss ........         0.000         0.000
  Initial Stored Volume ....         0.000         0.000
  Final Stored Volume ......         0.624         6.237
  Continuity Error (%) .....        10.203
  
  
  *************************
  Highest Continuity Errors
  *************************
  Node T2 (28.21%)
  Node T6 (16.22%)
  Node T3 (15.35%)
  Node T5 (14.98%)
  Node T4 (8.55%)
  
  
  ***************************
  Time-Step Critical Elements
  ***************************
  Link C15 (46.75%)
  
  
  ********************************
  Highest Flow Instability Indexes
  ********************************
  Link C13 (8)
  Link C11 (7)
  Link V3 (6)
  Link C3 (6)
  Link C23 (6)
  
  
  *************************
  Routing Time Step Summary
  *************************
  Minimum Time Step           :     0.05 sec
  Average Time Step           :    27.91 sec
  Maximum Time Step           :    30.00 sec
  Percent in Steady State     :     2.00
  Average Iterations per Step :     2.04
  Percent Not Converging      :     0.00
  
  
  ***************************
  Subcatchment Runoff Summary
  ***************************
  
  ------------------------------------------------------------------------------------------------------------------------------
                            Total      Total      Total      Total     Imperv       Perv      Total       Total     Peak  Runoff
                           Precip      Runon       Evap      Infil     Runoff     Runoff     Runoff      Runoff   Runoff   Coeff
  Subcatchment                 mm         mm         mm         mm         mm         mm         mm    10^6 ltr      CMS
  ------------------------------------------------------------------------------------------------------------------------------
  SC01                       7.02       0.00       0.00       0.00       6.92       0.00       6.92        2.28     0.13   0.985
  SC010                      7.02       0.00       0.00       0.00       6.88       0.00       6.88        0.81     0.04   0.980
  SC02                       6.64       0.00       0.00       0.00       6.52       0.00       6.52        1.48     0.08   0.983
  SC03                       7.14       0.00       0.00       0.00       7.06       0.00       7.06        1.27     0.08   0.989
  SC04                       6.64       0.00       0.00       0.00       6.40       0.00       6.40        0.44     0.02   0.964
  SC05                       7.02       0.00       0.00       0.00       6.91       0.00       6.91        1.08     0.06   0.984
  SC06                       7.95       0.00       0.00       0.00       7.63       0.00       7.63        2.48     0.12   0.960
  SC07                       6.64       0.00       0.00       0.00       6.40       0.00       6.40        0.30     0.02   0.964
  SC08                       7.14       0.00       0.00       0.00       6.99       0.00       6.99        1.96     0.09   0.979
  SC09                       7.95       0.00       0.00       0.00       7.76       0.00       7.76        0.54     0.03   0.976
  
  
  ******************
  Node Depth Summary
  ******************
  
  ---------------------------------------------------------------------------------
                                 Average  Maximum  Maximum  Time of Max    Reported
                                   Depth    Depth      HGL   Occurrence   Max Depth
  Node                 Type       Meters   Meters   Meters  days hr:min      Meters
  ---------------------------------------------------------------------------------
  CSO10                JUNCTION     0.11     0.17    30.17     0  10:00        0.17
  CSO7                 JUNCTION     0.09     0.12    34.12     0  04:15        0.12
  CSO8                 JUNCTION     0.12     0.18    32.18     0  05:05        0.18
  CSO9                 JUNCTION     0.10     0.15    40.15     0  04:21        0.15
  J1                   JUNCTION     0.07     0.09    34.09     0  04:16        0.09
  J10                  JUNCTION     0.09     0.13    29.13     0  05:09        0.13
  J11                  JUNCTION     0.09     0.14    31.14     0  05:16        0.14
  J12                  JUNCTION     0.21     0.62    26.62     0  11:17        0.58
  J13                  JUNCTION     0.06     0.09    29.09     0  04:15        0.09
  J14                  JUNCTION     0.12     0.19    20.19     0  11:17        0.19
  J15                  JUNCTION     0.16     0.21    15.21     0  04:30        0.21
  J16                  JUNCTION     0.06     0.10    30.10     0  10:01        0.10
  J17                  JUNCTION     0.05     0.13    20.13     0  13:25        0.13
  J18                  JUNCTION     0.05     0.08    29.08     0  10:03        0.08
  J19                  JUNCTION     0.14     0.17     8.17     0  06:31        0.17
  J2                   JUNCTION     0.06     0.07    25.07     0  10:43        0.07
  J3                   JUNCTION     0.11     0.15    18.15     0  13:25        0.15
  J4                   JUNCTION     0.10     0.14    33.14     0  04:18        0.14
  J5                   JUNCTION     0.06     0.08    32.08     0  04:18        0.08
  J6                   JUNCTION     0.06     0.11    25.11     0  06:36        0.10
  J7                   JUNCTION     0.08     0.12    39.12     0  04:25        0.12
  J8                   JUNCTION     0.10     0.14    36.14     0  04:26        0.14
  J9                   JUNCTION     0.10     0.16    29.16     0  06:41        0.16
  Out_to_WWTP          OUTFALL      0.14     0.17     6.17     0  06:31        0.17
  T1                   STORAGE      3.21     4.68    14.68     0  06:31        4.67
  T2                   STORAGE      1.98     3.34    24.34     0  11:29        3.34
  T3                   STORAGE      2.75     4.62    26.62     0  11:28        4.62
  T4                   STORAGE      1.50     2.78    29.78     0  06:30        2.78
  T5                   STORAGE      2.51     3.73    30.73     0  10:41        3.73
  T6                   STORAGE      2.98     4.91    35.91     0  12:25        4.91
  
  
  *******************
  Node Inflow Summary
  *******************
  
  -------------------------------------------------------------------------------------------------
                                  Maximum  Maximum                  Lateral       Total        Flow
                                  Lateral    Total  Time of Max      Inflow      Inflow     Balance
                                   Inflow   Inflow   Occurrence      Volume      Volume       Error
  Node                 Type           CMS      CMS  days hr:min    10^6 ltr    10^6 ltr     Percent
  -------------------------------------------------------------------------------------------------
  CSO10                JUNCTION     0.045    0.045     0  10:00           1           1       0.014
  CSO7                 JUNCTION     0.026    0.026     0  04:15       0.711       0.712       0.019
  CSO8                 JUNCTION     0.096    0.096     0  05:05        2.28        2.28       0.002
  CSO9                 JUNCTION     0.035    0.035     0  04:20        0.81       0.811       0.015
  J1                   JUNCTION     0.075    0.075     0  04:15        1.87        1.87      -0.071
  J10                  JUNCTION     0.086    0.166     0  09:55        1.81        4.09      -0.070
  J11                  JUNCTION     0.000    0.096     0  05:05           0        2.28       0.024
  J12                  JUNCTION     0.000    0.338     0  11:15           0        7.82       0.125
  J13                  JUNCTION     0.096    0.096     0  04:15        2.14        2.14      -0.225
  J14                  JUNCTION     0.000    0.182     0  11:29           0         4.1       0.599
  J15                  JUNCTION     0.000    0.396     0  04:28           0        11.4       0.810
  J16                  JUNCTION     0.143    0.143     0  10:00        3.06        3.06      -0.051
  J17                  JUNCTION     0.000    0.112     0  13:20           0       0.925       1.014
  J18                  JUNCTION     0.000    0.045     0  10:01           0           1      -0.009
  J19                  JUNCTION     0.000    0.262     0  06:31           0          10       0.116
  J2                   JUNCTION     0.000    0.034     0  10:42           0        1.31       0.341
  J3                   JUNCTION     0.000    0.249     0  13:24           0        6.44       0.876
  J4                   JUNCTION     0.000    0.026     0  04:15           0       0.711       0.205
  J5                   JUNCTION     0.026    0.051     0  04:15        0.62        1.33      -0.011
  J6                   JUNCTION     0.000    0.059     0  06:30           0        1.06      -0.403
  J7                   JUNCTION     0.000    0.035     0  04:21           0       0.811       0.165
  J8                   JUNCTION     0.154    0.189     0  04:25         3.8        4.62      -0.004
  J9                   JUNCTION     0.000    0.173     0  12:25           0        3.34      -0.276
  Out_to_WWTP          OUTFALL      0.000    0.262     0  06:31           0          10       0.000
  T1                   STORAGE      0.000    0.378     0  04:31           0        11.3       6.348
  T2                   STORAGE      0.000    0.096     0  04:15           0        2.15      39.297
  T3                   STORAGE      0.000    0.503     0  11:20           0        7.81      18.133
  T4                   STORAGE      0.000    0.051     0  04:18           0        1.33       9.350
  T5                   STORAGE      0.000    0.075     0  04:16           0        1.87      17.619
  T6                   STORAGE      0.000    0.189     0  04:26           0        4.62      19.355
  
  
  **********************
  Node Surcharge Summary
  **********************
  
  No nodes were surcharged.
  
  
  *********************
  Node Flooding Summary
  *********************
  
  No nodes were flooded.
  
  
  **********************
  Storage Volume Summary
  **********************
  
  --------------------------------------------------------------------------------------------------
                         Average     Avg  Evap Exfil       Maximum     Max    Time of Max    Maximum
                          Volume    Pcnt  Pcnt  Pcnt        Volume    Pcnt     Occurrence    Outflow
  Storage Unit           1000 m3    Full  Loss  Loss       1000 m3    Full    days hr:min        CMS
  --------------------------------------------------------------------------------------------------
  T1                       0.450      64     0     0         0.655      94       0  06:31      0.262
  T2                       0.397      40     0     0         0.669      67       0  11:29      0.112
  T3                       1.428      55     0     0         2.402      92       0  11:28      0.373
  T4                       0.150      30     0     0         0.278      56       0  06:30      0.059
  T5                       0.251      50     0     0         0.373      75       0  10:41      0.034
  T6                       0.357      60     0     0         0.589      98       0  12:25      0.173
  
  
  ***********************
  Outfall Loading Summary
  ***********************
  
  -----------------------------------------------------------
                         Flow       Avg       Max       Total
                         Freq      Flow      Flow      Volume
  Outfall Node           Pcnt       CMS       CMS    10^6 ltr
  -----------------------------------------------------------
  Out_to_WWTP           99.38     0.204     0.262      10.020
  -----------------------------------------------------------
  System                99.38     0.204     0.262      10.020
  
  
  ********************
  Link Flow Summary
  ********************
  
  -----------------------------------------------------------------------------
                                 Maximum  Time of Max   Maximum    Max/    Max/
                                  |Flow|   Occurrence   |Veloc|    Full    Full
  Link                 Type          CMS  days hr:min     m/sec    Flow   Depth
  -----------------------------------------------------------------------------
  C1                   CONDUIT     0.034     0  10:43      1.02    0.01    0.11
  C10                  CONDUIT     0.189     0  04:26      1.69    0.02    0.55
  C11                  CONDUIT     0.237     0  13:25      1.94    0.01    0.08
  C12                  CONDUIT     0.163     0  06:41      1.38    0.01    0.18
  C13                  CONDUIT     0.503     0  11:20      1.50    0.03    0.65
  C14                  CONDUIT     0.262     0  06:31      2.06    0.01    0.08
  C15                  CONDUIT     0.096     0  05:05      1.95    0.31    0.35
  C16                  CONDUIT     0.095     0  05:17      1.07    0.01    0.07
  C17                  CONDUIT     0.165     0  05:09      1.69    0.01    0.18
  C18                  CONDUIT     0.096     0  04:15      3.22    0.00    0.52
  C19                  CONDUIT     0.108     0  13:25      1.43    0.04    0.16
  C2                   CONDUIT     0.059     0  06:37      1.67    0.07    0.20
  C20                  CONDUIT     0.142     0  10:01      2.30    0.00    0.07
  C21                  CONDUIT     0.045     0  10:01      1.31    0.26    0.28
  C22                  CONDUIT     0.044     0  10:03      0.80    0.02    0.18
  C23                  CONDUIT     0.378     0  04:31      1.27    0.04    0.57
  C3                   CONDUIT     0.184     0  11:18      2.26    0.07    0.17
  C4                   CONDUIT     0.075     0  04:16      2.44    0.02    0.55
  C5                   CONDUIT     0.026     0  04:15      1.25    0.44    0.52
  C6                   CONDUIT     0.026     0  04:18      1.07    0.41    0.37
  C7                   CONDUIT     0.051     0  04:18      1.47    0.01    0.54
  C8                   CONDUIT     0.035     0  04:21      1.09    0.44    0.42
  C9                   CONDUIT     0.035     0  04:26      0.85    0.12    0.26
  V1                   ORIFICE     0.262     0  06:31                      1.00
  V2                   ORIFICE     0.112     0  13:20                      1.00
  V3                   ORIFICE     0.182     0  11:29                      1.00
  V4                   ORIFICE     0.059     0  06:30                      1.00
  V5                   ORIFICE     0.034     0  10:42                      1.00
  V6                   ORIFICE     0.173     0  12:25                      1.00
  
  
  ***************************
  Flow Classification Summary
  ***************************
  
  -------------------------------------------------------------------------------------
                      Adjusted    ---------- Fraction of Time in Flow Class ---------- 
                       /Actual         Up    Down  Sub   Sup   Up    Down  Norm  Inlet 
  Conduit               Length    Dry  Dry   Dry   Crit  Crit  Crit  Crit  Ltd   Ctrl  
  -------------------------------------------------------------------------------------
  C1                      1.00   0.00  0.00  0.00  0.49  0.51  0.00  0.00  0.97  0.00
  C10                     1.00   0.00  0.00  0.00  0.98  0.02  0.00  0.00  0.99  0.00
  C11                     1.00   0.00  0.00  0.00  0.13  0.87  0.00  0.00  1.00  0.00
  C12                     1.00   0.00  0.00  0.00  0.79  0.21  0.00  0.00  0.98  0.00
  C13                     1.00   0.00  0.00  0.00  0.93  0.07  0.00  0.00  0.54  0.00
  C14                     1.00   0.00  0.00  0.00  0.01  0.99  0.00  0.00  0.48  0.00
  C15                     1.00   0.00  0.00  0.00  0.00  1.00  0.00  0.00  0.00  0.00
  C16                     1.00   0.00  0.00  0.00  0.32  0.68  0.00  0.00  0.28  0.00
  C17                     1.00   0.00  0.00  0.00  0.42  0.58  0.00  0.00  0.98  0.00
  C18                     1.00   0.00  0.00  0.00  0.92  0.08  0.00  0.00  0.98  0.00
  C19                     1.00   0.00  0.00  0.00  0.98  0.02  0.00  0.00  1.00  0.00
  C2                      1.00   0.00  0.00  0.00  0.54  0.46  0.00  0.00  1.00  0.00
  C20                     1.00   0.00  0.00  0.00  0.42  0.58  0.00  0.00  0.99  0.00
  C21                     1.00   0.00  0.00  0.00  0.00  1.00  0.00  0.00  0.00  0.00
  C22                     1.00   0.00  0.00  0.00  0.99  0.01  0.00  0.00  1.00  0.00
  C23                     1.00   0.00  0.00  0.00  0.94  0.06  0.00  0.00  0.97  0.00
  C3                      1.00   0.00  0.00  0.00  0.03  0.97  0.00  0.00  0.43  0.00
  C4                      1.00   0.00  0.00  0.00  0.98  0.02  0.00  0.00  0.99  0.00
  C5                      1.00   0.00  0.00  0.00  0.94  0.06  0.00  0.00  0.99  0.00
  C6                      1.00   0.00  0.00  0.00  0.01  0.99  0.00  0.00  0.00  0.00
  C7                      1.00   0.00  0.00  0.00  0.97  0.03  0.00  0.00  0.98  0.00
  C8                      1.00   0.00  0.00  0.00  0.07  0.93  0.00  0.00  0.00  0.00
  C9                      1.00   0.00  0.00  0.00  1.00  0.00  0.00  0.00  1.00  0.00
  
  
  *************************
  Conduit Surcharge Summary
  *************************
  
  ----------------------------------------------------------------------------
                                                           Hours        Hours 
                         --------- Hours Full --------   Above Full   Capacity
  Conduit                Both Ends  Upstream  Dnstream   Normal Flow   Limited
  ----------------------------------------------------------------------------
  C10                         0.01      0.01      9.89      0.01         0.01
  C13                         0.01      0.01      8.93      0.01         0.01
  C18                         0.01      0.01      8.11      0.01         0.01
  C23                         0.01      0.01     10.55      0.01         0.01
  C4                          0.01      0.01     11.06      0.01         0.01
  C7                          0.01      0.01      9.98      0.01         0.01
  

  Analysis begun on:  Sun Jul 17 19:48:56 2022
  Analysis ended on:  Sun Jul 17 19:48:57 2022
  Total elapsed time: 00:00:01