
  EPA STORM WATER MANAGEMENT MODEL - VERSION 5.1 (Build 5.3.0.dev0)
  --------------------------------------------------------------

  
  *********************************************************
  NOTE: The summary statistics displayed in this report are
  based on results found at every computational time step,  
  not just on results from each reporting time step.
  *********************************************************
  
  ****************
  Analysis Options
  ****************
  Flow Units ............... CMS
  Process Models:
    Rainfall/Runoff ........ YES
    RDII ................... NO
    Snowmelt ............... NO
    Groundwater ............ NO
    Flow Routing ........... YES
    Ponding Allowed ........ NO
    Water Quality .......... NO
  Infiltration Method ...... HORTON
  Flow Routing Method ...... DYNWAVE
  Surcharge Method ......... EXTRAN
  Starting Date ............ 07/08/2008 18:15:00
  Ending Date .............. 07/09/2008 03:10:00
  Antecedent Dry Days ...... 0.0
  Report Time Step ......... 00:05:00
  Wet Time Step ............ 00:05:00
  Dry Time Step ............ 01:00:00
  Routing Time Step ........ 30.00 sec
  Variable Time Step ....... YES
  Maximum Trials ........... 8
  Number of Threads ........ 1
  Head Tolerance ........... 0.001500 m
  
  
  **************************        Volume         Depth
  Runoff Quantity Continuity     hectare-m            mm
  **************************     ---------       -------
  Total Precipitation ......         2.155        11.961
  Evaporation Loss .........         0.000         0.000
  Infiltration Loss ........         0.000         0.000
  Surface Runoff ...........         2.129        11.816
  Final Storage ............         0.033         0.182
  Continuity Error (%) .....        -0.307
  
  
  **************************        Volume        Volume
  Flow Routing Continuity        hectare-m      10^6 ltr
  **************************     ---------     ---------
  Dry Weather Inflow .......         0.145         1.453
  Wet Weather Inflow .......         2.130        21.299
  Groundwater Inflow .......         0.000         0.000
  RDII Inflow ..............         0.000         0.000
  External Inflow ..........         0.000         0.000
  External Outflow .........         0.714         7.141
  Flooding Loss ............         0.581         5.811
  Evaporation Loss .........         0.000         0.000
  Exfiltration Loss ........         0.000         0.000
  Initial Stored Volume ....         0.000         0.000
  Final Stored Volume ......         0.747         7.467
  Continuity Error (%) .....        10.254
  
  
  *************************
  Highest Continuity Errors
  *************************
  Node T2 (31.09%)
  Node T5 (21.28%)
  Node T6 (20.43%)
  Node T4 (19.07%)
  Node T3 (15.23%)
  
  
  ***************************
  Time-Step Critical Elements
  ***************************
  Link C15 (61.54%)
  Link C21 (4.89%)
  
  
  ********************************
  Highest Flow Instability Indexes
  ********************************
  Link C13 (9)
  Link C11 (4)
  Link C3 (3)
  Link C23 (3)
  Link V3 (3)
  
  
  *************************
  Routing Time Step Summary
  *************************
  Minimum Time Step           :     0.60 sec
  Average Time Step           :    22.81 sec
  Maximum Time Step           :    30.00 sec
  Percent in Steady State     :     4.26
  Average Iterations per Step :     2.66
  Percent Not Converging      :     2.23
  
  
  ***************************
  Subcatchment Runoff Summary
  ***************************
  
  ------------------------------------------------------------------------------------------------------------------------------
                            Total      Total      Total      Total     Imperv       Perv      Total       Total     Peak  Runoff
                           Precip      Runon       Evap      Infil     Runoff     Runoff     Runoff      Runoff   Runoff   Coeff
  Subcatchment                 mm         mm         mm         mm         mm         mm         mm    10^6 ltr      CMS
  ------------------------------------------------------------------------------------------------------------------------------
  SC01                      11.25       0.00       0.00       0.00      11.18       0.00      11.18        3.69     0.70   0.994
  SC010                     11.25       0.00       0.00       0.00      11.12       0.00      11.12        1.31     0.21   0.989
  SC02                      13.79       0.00       0.00       0.00      13.69       0.00      13.69        3.11     0.41   0.992
  SC03                      14.16       0.00       0.00       0.00      14.13       0.00      14.13        2.54     0.49   0.998
  SC04                      13.79       0.00       0.00       0.00      13.51       0.00      13.51        0.93     0.09   0.980
  SC05                      11.25       0.00       0.00       0.00      11.16       0.00      11.16        1.74     0.32   0.992
  SC06                       8.89       0.00       0.00       0.00       8.59       0.00       8.59        2.80     0.24   0.966
  SC07                      13.79       0.00       0.00       0.00      13.51       0.00      13.51        0.64     0.06   0.980
  SC08                      14.16       0.00       0.00       0.00      14.02       0.00      14.02        3.93     0.52   0.990
  SC09                       8.89       0.00       0.00       0.00       8.72       0.00       8.72        0.60     0.06   0.981
  
  
  ******************
  Node Depth Summary
  ******************
  
  ---------------------------------------------------------------------------------
                                 Average  Maximum  Maximum  Time of Max    Reported
                                   Depth    Depth      HGL   Occurrence   Max Depth
  Node                 Type       Meters   Meters   Meters  days hr:min      Meters
  ---------------------------------------------------------------------------------
  CSO10                JUNCTION     0.17     1.00    31.00     0  05:19        1.00
  CSO7                 JUNCTION     0.16     1.19    35.19     0  02:09        1.16
  CSO8                 JUNCTION     0.40     2.00    34.00     0  01:54        2.00
  CSO9                 JUNCTION     0.12     0.24    40.24     0  02:00        0.23
  J1                   JUNCTION     0.08     0.19    34.19     0  05:20        0.18
  J10                  JUNCTION     0.14     0.29    29.29     0  01:58        0.29
  J11                  JUNCTION     0.15     0.30    31.30     0  02:11        0.30
  J12                  JUNCTION     0.62     1.03    27.03     0  03:39        1.03
  J13                  JUNCTION     0.09     0.17    29.17     0  02:05        0.17
  J14                  JUNCTION     0.13     0.19    20.19     0  04:07        0.19
  J15                  JUNCTION     0.20     0.36    15.36     0  05:23        0.36
  J16                  JUNCTION     0.09     0.20    30.20     0  05:20        0.20
  J17                  JUNCTION     0.08     0.15    20.15     0  04:53        0.15
  J18                  JUNCTION     0.07     0.16    29.16     0  05:21        0.16
  J19                  JUNCTION     0.15     0.17     8.17     0  02:39        0.17
  J2                   JUNCTION     0.06     0.08    25.08     0  05:57        0.08
  J3                   JUNCTION     0.12     0.17    18.17     0  05:25        0.17
  J4                   JUNCTION     0.16     0.81    33.81     0  02:09        0.74
  J5                   JUNCTION     0.08     0.14    32.14     0  02:15        0.14
  J6                   JUNCTION     0.08     0.12    25.12     0  05:23        0.12
  J7                   JUNCTION     0.09     0.16    39.16     0  02:04        0.16
  J8                   JUNCTION     0.12     0.18    36.18     0  02:05        0.18
  J9                   JUNCTION     0.10     0.16    29.16     0  04:51        0.16
  Out_to_WWTP          OUTFALL      0.15     0.17     6.17     0  07:14        0.17
  T1                   STORAGE      3.66     5.00    15.00     0  02:38        5.00
  T2                   STORAGE      3.40     4.95    25.95     0  04:45        4.95
  T3                   STORAGE      3.78     5.00    27.00     0  03:33        5.00
  T4                   STORAGE      2.92     4.58    31.58     0  05:15        4.58
  T5                   STORAGE      3.03     5.00    32.00     0  05:17        5.00
  T6                   STORAGE      3.07     4.83    35.83     0  04:49        4.82
  
  
  *******************
  Node Inflow Summary
  *******************
  
  -------------------------------------------------------------------------------------------------
                                  Maximum  Maximum                  Lateral       Total        Flow
                                  Lateral    Total  Time of Max      Inflow      Inflow     Balance
                                   Inflow   Inflow   Occurrence      Volume      Volume       Error
  Node                 Type           CMS      CMS  days hr:min    10^6 ltr    10^6 ltr     Percent
  -------------------------------------------------------------------------------------------------
  CSO10                JUNCTION     0.215    0.215     0  05:20        1.36        1.36      -0.017
  CSO7                 JUNCTION     0.070    0.070     0  02:15       0.758       0.758      -0.177
  CSO8                 JUNCTION     0.517    0.517     0  01:55        3.93        3.92       0.113
  CSO9                 JUNCTION     0.067    0.067     0  02:00        0.68       0.677       0.301
  J1                   JUNCTION     0.320    0.320     0  05:20        1.97        1.97      -0.283
  J10                  JUNCTION     0.502    0.927     0  01:57        2.69        6.58      -0.227
  J11                  JUNCTION     0.000    0.486     0  02:10           0        3.89      -0.010
  J12                  JUNCTION     0.000    0.965     0  01:58           0        9.17       3.606
  J13                  JUNCTION     0.416    0.416     0  02:05         3.3        3.31      -0.594
  J14                  JUNCTION     0.000    0.190     0  03:35           0        3.49      -1.969
  J15                  JUNCTION     0.000    1.292     0  05:20           0        12.3       0.566
  J16                  JUNCTION     0.702    0.702     0  05:20        3.91        3.92      -0.190
  J17                  JUNCTION     0.000    0.139     0  04:45           0        1.38      -4.324
  J18                  JUNCTION     0.000    0.202     0  05:21           0        1.36      -0.149
  J19                  JUNCTION     0.000    0.271     0  02:38           0        7.15       0.149
  J2                   JUNCTION     0.000    0.039     0  05:18           0        0.96       0.555
  J3                   JUNCTION     0.000    0.304     0  05:23           0         5.6       0.129
  J4                   JUNCTION     0.000    0.070     0  02:15           0       0.759       0.118
  J5                   JUNCTION     0.095    0.165     0  02:15       0.984        1.74      -0.119
  J6                   JUNCTION     0.000    0.076     0  05:15           0        1.06      -2.616
  J7                   JUNCTION     0.000    0.067     0  02:00           0       0.675       0.181
  J8                   JUNCTION     0.261    0.315     0  02:25        3.17        3.83       0.068
  J9                   JUNCTION     0.000    0.172     0  04:49           0        2.51       2.371
  Out_to_WWTP          OUTFALL      0.000    0.271     0  02:40           0        7.14       0.000
  T1                   STORAGE      0.000    1.155     0  05:24           0        12.3       4.602
  T2                   STORAGE      0.000    0.414     0  02:05           0        3.33      45.119
  T3                   STORAGE      0.000    0.934     0  02:04           0        8.85      17.968
  T4                   STORAGE      0.000    0.164     0  02:15           0        1.75      23.566
  T5                   STORAGE      0.000    0.315     0  05:21           0        1.97      27.040
  T6                   STORAGE      0.000    0.314     0  02:05           0        3.83      25.682
  
  
  **********************
  Node Surcharge Summary
  **********************
  
  Surcharging occurs when water rises above the top of the highest conduit.
  ---------------------------------------------------------------------
                                               Max. Height   Min. Depth
                                   Hours       Above Crown    Below Rim
  Node                 Type      Surcharged         Meters       Meters
  ---------------------------------------------------------------------
  CSO10                JUNCTION        0.12          0.560        0.000
  CSO7                 JUNCTION        0.47          0.930        0.015
  CSO8                 JUNCTION        0.98          1.547        0.000
  J4                   JUNCTION        0.41          0.505        1.195
  
  
  *********************
  Node Flooding Summary
  *********************
  
  Flooding refers to all water that overflows a node, whether it ponds or not.
  --------------------------------------------------------------------------
                                                             Total   Maximum
                                 Maximum   Time of Max       Flood    Ponded
                        Hours       Rate    Occurrence      Volume     Depth
  Node                 Flooded       CMS   days hr:min    10^6 ltr    Meters
  --------------------------------------------------------------------------
  CSO10                   0.06     0.013      0  05:20       0.002     0.000
  CSO8                    0.28     0.036      0  01:55       0.018     0.000
  T1                      4.33     0.884      0  05:24       4.118     0.000
  T3                      1.92     0.563      0  03:54       1.436     0.000
  T5                      0.66     0.275      0  05:21       0.233     0.000
  
  
  **********************
  Storage Volume Summary
  **********************
  
  --------------------------------------------------------------------------------------------------
                         Average     Avg  Evap Exfil       Maximum     Max    Time of Max    Maximum
                          Volume    Pcnt  Pcnt  Pcnt        Volume    Pcnt     Occurrence    Outflow
  Storage Unit           1000 m3    Full  Loss  Loss       1000 m3    Full    days hr:min        CMS
  --------------------------------------------------------------------------------------------------
  T1                       0.512      73     0     0         0.700     100       0  02:38      0.271
  T2                       0.679      68     0     0         0.990      99       0  04:45      0.139
  T3                       1.966      76     0     0         2.600     100       0  03:33      0.349
  T4                       0.292      58     0     0         0.458      92       0  05:15      0.076
  T5                       0.303      61     0     0         0.500     100       0  05:17      0.039
  T6                       0.368      61     0     0         0.579      97       0  04:49      0.172
  
  
  ***********************
  Outfall Loading Summary
  ***********************
  
  -----------------------------------------------------------
                         Flow       Avg       Max       Total
                         Freq      Flow      Flow      Volume
  Outfall Node           Pcnt       CMS       CMS    10^6 ltr
  -----------------------------------------------------------
  Out_to_WWTP           99.22     0.217     0.271       7.141
  -----------------------------------------------------------
  System                99.22     0.217     0.271       7.141
  
  
  ********************
  Link Flow Summary
  ********************
  
  -----------------------------------------------------------------------------
                                 Maximum  Time of Max   Maximum    Max/    Max/
                                  |Flow|   Occurrence   |Veloc|    Full    Full
  Link                 Type          CMS  days hr:min     m/sec    Flow   Depth
  -----------------------------------------------------------------------------
  C1                   CONDUIT     0.039     0  05:57      0.99    0.01    0.12
  C10                  CONDUIT     0.314     0  02:05      1.59    0.03    0.56
  C11                  CONDUIT     0.303     0  05:25      1.90    0.01    0.13
  C12                  CONDUIT     0.172     0  04:51      0.88    0.01    0.29
  C13                  CONDUIT     0.934     0  02:04      2.87    0.05    0.76
  C14                  CONDUIT     0.271     0  02:40      2.08    0.02    0.09
  C15                  CONDUIT     0.486     0  02:10      3.50    1.55    0.83
  C16                  CONDUIT     0.485     0  02:11      1.76    0.05    0.15
  C17                  CONDUIT     0.929     0  01:58      3.28    0.05    0.30
  C18                  CONDUIT     0.414     0  02:05      4.72    0.02    0.54
  C19                  CONDUIT     0.139     0  04:53      1.54    0.05    0.25
  C2                   CONDUIT     0.075     0  05:24      1.72    0.09    0.24
  C20                  CONDUIT     0.689     0  05:21      3.71    0.02    0.14
  C21                  CONDUIT     0.202     0  05:21      1.84    1.16    0.68
  C22                  CONDUIT     0.197     0  05:22      1.39    0.09    0.33
  C23                  CONDUIT     1.155     0  05:24      1.55    0.13    0.62
  C3                   CONDUIT     0.193     0  04:07      2.16    0.07    0.18
  C4                   CONDUIT     0.315     0  05:21      4.05    0.08    0.59
  C5                   CONDUIT     0.070     0  02:15      1.36    1.19    1.00
  C6                   CONDUIT     0.070     0  02:15      1.28    1.11    0.73
  C7                   CONDUIT     0.164     0  02:15      1.38    0.04    0.57
  C8                   CONDUIT     0.067     0  02:00      1.33    0.84    0.62
  C9                   CONDUIT     0.064     0  02:04      1.08    0.22    0.34
  V1                   ORIFICE     0.271     0  02:38                      1.00
  V2                   ORIFICE     0.139     0  04:45                      1.00
  V3                   ORIFICE     0.190     0  03:35                      1.00
  V4                   ORIFICE     0.076     0  05:15                      1.00
  V5                   ORIFICE     0.039     0  05:18                      1.00
  V6                   ORIFICE     0.172     0  04:49                      1.00
  
  
  ***************************
  Flow Classification Summary
  ***************************
  
  -------------------------------------------------------------------------------------
                      Adjusted    ---------- Fraction of Time in Flow Class ---------- 
                       /Actual         Up    Down  Sub   Sup   Up    Down  Norm  Inlet 
  Conduit               Length    Dry  Dry   Dry   Crit  Crit  Crit  Crit  Ltd   Ctrl  
  -------------------------------------------------------------------------------------
  C1                      1.00   0.00  0.00  0.00  0.75  0.25  0.00  0.00  0.96  0.00
  C10                     1.00   0.00  0.00  0.00  0.92  0.08  0.00  0.00  0.98  0.00
  C11                     1.00   0.00  0.00  0.00  0.26  0.74  0.00  0.00  1.00  0.00
  C12                     1.00   0.00  0.00  0.00  1.00  0.00  0.00  0.00  1.00  0.00
  C13                     1.00   0.00  0.00  0.00  0.93  0.07  0.00  0.00  0.22  0.00
  C14                     1.00   0.01  0.00  0.00  0.01  0.99  0.00  0.00  0.20  0.00
  C15                     1.00   0.01  0.00  0.00  0.00  0.99  0.00  0.00  0.00  0.00
  C16                     1.00   0.00  0.01  0.00  0.13  0.86  0.00  0.00  0.03  0.00
  C17                     1.00   0.00  0.00  0.00  0.64  0.36  0.00  0.00  0.93  0.00
  C18                     1.00   0.00  0.00  0.00  0.92  0.08  0.00  0.00  0.97  0.00
  C19                     1.00   0.00  0.00  0.00  0.94  0.06  0.00  0.00  1.00  0.00
  C2                      1.00   0.00  0.00  0.00  0.33  0.67  0.00  0.00  0.97  0.00
  C20                     1.00   0.00  0.00  0.00  0.35  0.65  0.00  0.00  0.98  0.00
  C21                     1.00   0.00  0.00  0.00  0.01  0.99  0.00  0.00  0.00  0.00
  C22                     1.00   0.00  0.00  0.00  0.92  0.08  0.00  0.00  1.00  0.00
  C23                     1.00   0.00  0.00  0.00  0.90  0.10  0.00  0.00  0.95  0.00
  C3                      1.00   0.00  0.00  0.00  0.03  0.96  0.00  0.00  0.39  0.00
  C4                      1.00   0.00  0.00  0.00  0.97  0.03  0.00  0.00  0.98  0.00
  C5                      1.00   0.00  0.00  0.00  0.86  0.14  0.00  0.00  0.90  0.00
  C6                      1.00   0.00  0.00  0.00  0.11  0.89  0.00  0.00  0.00  0.00
  C7                      1.00   0.00  0.00  0.00  0.92  0.08  0.00  0.00  0.97  0.00
  C8                      1.00   0.00  0.00  0.00  0.10  0.90  0.00  0.00  0.00  0.00
  C9                      1.00   0.00  0.00  0.00  1.00  0.00  0.00  0.00  1.00  0.00
  
  
  *************************
  Conduit Surcharge Summary
  *************************
  
  ----------------------------------------------------------------------------
                                                           Hours        Hours 
                         --------- Hours Full --------   Above Full   Capacity
  Conduit                Both Ends  Upstream  Dnstream   Normal Flow   Limited
  ----------------------------------------------------------------------------
  C10                         0.01      0.01      6.80      0.01         0.01
  C13                         0.01      0.01      7.49      0.01         0.01
  C15                         0.01      0.97      0.01      1.03         0.01
  C18                         0.01      0.01      6.84      0.01         0.01
  C21                         0.01      0.11      0.01      0.10         0.01
  C23                         0.01      0.01      7.67      0.01         0.01
  C4                          0.01      0.01      7.49      0.01         0.01
  C5                          0.44      0.47      0.56      0.50         0.40
  C6                          0.01      0.41      0.01      0.23         0.01
  C7                          0.01      0.01      7.70      0.01         0.01
  

  Analysis begun on:  Sun Jul 17 20:50:18 2022
  Analysis ended on:  Sun Jul 17 20:50:19 2022
  Total elapsed time: 00:00:01