
  EPA STORM WATER MANAGEMENT MODEL - VERSION 5.1 (Build 5.3.0.dev0)
  --------------------------------------------------------------

  
  *********************************************************
  NOTE: The summary statistics displayed in this report are
  based on results found at every computational time step,  
  not just on results from each reporting time step.
  *********************************************************
  
  ****************
  Analysis Options
  ****************
  Flow Units ............... CMS
  Process Models:
    Rainfall/Runoff ........ YES
    RDII ................... NO
    Snowmelt ............... NO
    Groundwater ............ NO
    Flow Routing ........... YES
    Ponding Allowed ........ NO
    Water Quality .......... NO
  Infiltration Method ...... HORTON
  Flow Routing Method ...... DYNWAVE
  Surcharge Method ......... EXTRAN
  Starting Date ............ 11/24/2009 08:35:00
  Ending Date .............. 11/24/2009 13:25:00
  Antecedent Dry Days ...... 0.0
  Report Time Step ......... 00:05:00
  Wet Time Step ............ 00:05:00
  Dry Time Step ............ 01:00:00
  Routing Time Step ........ 30.00 sec
  Variable Time Step ....... YES
  Maximum Trials ........... 8
  Number of Threads ........ 1
  Head Tolerance ........... 0.001500 m
  
  
  **************************        Volume         Depth
  Runoff Quantity Continuity     hectare-m            mm
  **************************     ---------       -------
  Total Precipitation ......         1.126         6.248
  Evaporation Loss .........         0.000         0.000
  Infiltration Loss ........         0.000         0.000
  Surface Runoff ...........         1.089         6.042
  Final Storage ............         0.040         0.224
  Continuity Error (%) .....        -0.281
  
  
  **************************        Volume        Volume
  Flow Routing Continuity        hectare-m      10^6 ltr
  **************************     ---------     ---------
  Dry Weather Inflow .......         0.259         2.590
  Wet Weather Inflow .......         1.088        10.883
  Groundwater Inflow .......         0.000         0.000
  RDII Inflow ..............         0.000         0.000
  External Inflow ..........         0.000         0.000
  External Outflow .........         0.389         3.885
  Flooding Loss ............         0.065         0.647
  Evaporation Loss .........         0.000         0.000
  Exfiltration Loss ........         0.000         0.000
  Initial Stored Volume ....         0.000         0.000
  Final Stored Volume ......         0.671         6.709
  Continuity Error (%) .....        16.567
  
  
  *************************
  Highest Continuity Errors
  *************************
  Node T2 (39.25%)
  Node T5 (31.76%)
  Node T3 (26.01%)
  Node T6 (22.63%)
  Node T4 (19.92%)
  
  
  ***************************
  Time-Step Critical Elements
  ***************************
  Link C15 (66.11%)
  
  
  ********************************
  Highest Flow Instability Indexes
  ********************************
  Link C11 (4)
  Link C3 (4)
  Link C13 (4)
  Link C12 (4)
  Link V3 (3)
  
  
  *************************
  Routing Time Step Summary
  *************************
  Minimum Time Step           :     0.17 sec
  Average Time Step           :    24.19 sec
  Maximum Time Step           :    30.00 sec
  Percent in Steady State     :     3.79
  Average Iterations per Step :     2.04
  Percent Not Converging      :     0.00
  
  
  ***************************
  Subcatchment Runoff Summary
  ***************************
  
  ------------------------------------------------------------------------------------------------------------------------------
                            Total      Total      Total      Total     Imperv       Perv      Total       Total     Peak  Runoff
                           Precip      Runon       Evap      Infil     Runoff     Runoff     Runoff      Runoff   Runoff   Coeff
  Subcatchment                 mm         mm         mm         mm         mm         mm         mm    10^6 ltr      CMS
  ------------------------------------------------------------------------------------------------------------------------------
  SC01                       6.80       0.00       0.00       0.00       6.67       0.00       6.67        2.20     0.33   0.982
  SC010                      6.80       0.00       0.00       0.00       6.61       0.00       6.61        0.78     0.10   0.972
  SC02                       6.22       0.00       0.00       0.00       6.08       0.00       6.08        1.38     0.23   0.978
  SC03                       5.57       0.00       0.00       0.00       5.50       0.00       5.50        0.99     0.19   0.987
  SC04                       6.22       0.00       0.00       0.00       5.88       0.00       5.88        0.41     0.05   0.946
  SC05                       6.80       0.00       0.00       0.00       6.66       0.00       6.66        1.04     0.15   0.979
  SC06                       6.22       0.00       0.00       0.00       5.80       0.00       5.80        1.89     0.23   0.932
  SC07                       6.22       0.00       0.00       0.00       5.88       0.00       5.88        0.28     0.04   0.946
  SC08                       5.57       0.00       0.00       0.00       5.39       0.00       5.39        1.51     0.22   0.968
  SC09                       6.22       0.00       0.00       0.00       5.99       0.00       5.99        0.41     0.06   0.963
  
  
  ******************
  Node Depth Summary
  ******************
  
  ---------------------------------------------------------------------------------
                                 Average  Maximum  Maximum  Time of Max    Reported
                                   Depth    Depth      HGL   Occurrence   Max Depth
  Node                 Type       Meters   Meters   Meters  days hr:min      Meters
  ---------------------------------------------------------------------------------
  CSO10                JUNCTION     0.18     0.27    30.27     0  00:40        0.27
  CSO7                 JUNCTION     0.13     0.17    34.17     0  01:15        0.17
  CSO8                 JUNCTION     0.18     0.30    32.30     0  00:30        0.30
  CSO9                 JUNCTION     0.15     0.24    40.24     0  00:36        0.24
  J1                   JUNCTION     0.10     0.14    34.14     0  00:36        0.14
  J10                  JUNCTION     0.13     0.20    29.20     0  00:30        0.20
  J11                  JUNCTION     0.13     0.21    31.21     0  01:11        0.21
  J12                  JUNCTION     0.17     0.23    26.23     0  01:11        0.23
  J13                  JUNCTION     0.09     0.14    29.14     0  00:30        0.13
  J14                  JUNCTION     0.11     0.18    20.18     0  04:27        0.18
  J15                  JUNCTION     0.20     0.25    15.25     0  00:46        0.25
  J16                  JUNCTION     0.10     0.15    30.15     0  00:35        0.15
  J17                  JUNCTION     0.05     0.11    20.11     0  01:30        0.11
  J18                  JUNCTION     0.08     0.12    29.12     0  00:41        0.12
  J19                  JUNCTION     0.15     0.17     8.17     0  02:02        0.17
  J2                   JUNCTION     0.06     0.08    25.08     0  03:47        0.08
  J3                   JUNCTION     0.11     0.15    18.15     0  04:09        0.15
  J4                   JUNCTION     0.15     0.20    33.20     0  01:28        0.20
  J5                   JUNCTION     0.08     0.11    32.11     0  01:18        0.11
  J6                   JUNCTION     0.06     0.11    25.11     0  03:07        0.11
  J7                   JUNCTION     0.11     0.17    39.17     0  00:42        0.16
  J8                   JUNCTION     0.14     0.19    36.19     0  00:44        0.19
  J9                   JUNCTION     0.11     0.16    29.16     0  02:51        0.16
  Out_to_WWTP          OUTFALL      0.15     0.17     6.17     0  02:01        0.17
  T1                   STORAGE      3.72     5.00    15.00     0  02:01        5.00
  T2                   STORAGE      2.20     3.39    24.39     0  04:13        3.39
  T3                   STORAGE      2.30     4.08    26.08     0  04:08        4.08
  T4                   STORAGE      2.02     3.36    30.36     0  03:00        3.35
  T5                   STORAGE      3.00     4.62    31.62     0  03:34        4.62
  T6                   STORAGE      3.37     5.00    36.00     0  02:26        5.00
  
  
  *******************
  Node Inflow Summary
  *******************
  
  -------------------------------------------------------------------------------------------------
                                  Maximum  Maximum                  Lateral       Total        Flow
                                  Lateral    Total  Time of Max      Inflow      Inflow     Balance
                                   Inflow   Inflow   Occurrence      Volume      Volume       Error
  Node                 Type           CMS      CMS  days hr:min    10^6 ltr    10^6 ltr     Percent
  -------------------------------------------------------------------------------------------------
  CSO10                JUNCTION     0.108    0.108     0  00:40       0.868       0.869       0.075
  CSO7                 JUNCTION     0.044    0.044     0  01:15        0.47       0.471       0.143
  CSO8                 JUNCTION     0.232    0.232     0  00:30        1.69        1.69       0.039
  CSO9                 JUNCTION     0.070    0.070     0  00:35       0.542       0.542       0.114
  J1                   JUNCTION     0.169    0.169     0  00:35        1.41        1.41       0.004
  J10                  JUNCTION     0.207    0.420     0  00:30        1.24        2.93       0.196
  J11                  JUNCTION     0.000    0.232     0  00:30           0        1.69       0.383
  J12                  JUNCTION     0.000    0.500     0  01:10           0        4.66       0.496
  J13                  JUNCTION     0.249    0.249     0  00:30        1.69        1.69      -0.288
  J14                  JUNCTION     0.000    0.171     0  04:09           0        1.37       0.479
  J15                  JUNCTION     0.000    0.547     0  00:45           0         6.1       1.543
  J16                  JUNCTION     0.349    0.349     0  00:35        2.57        2.57      -0.010
  J17                  JUNCTION     0.000    0.083     0  01:30           0       0.357       1.709
  J18                  JUNCTION     0.000    0.108     0  00:40           0       0.868       0.111
  J19                  JUNCTION     0.000    0.271     0  02:02           0         3.9       0.327
  J2                   JUNCTION     0.000    0.038     0  03:34           0       0.515       1.040
  J3                   JUNCTION     0.000    0.233     0  04:07           0        2.35       1.779
  J4                   JUNCTION     0.000    0.044     0  01:15           0        0.47       1.089
  J5                   JUNCTION     0.055    0.097     0  01:17        0.49       0.955       0.193
  J6                   JUNCTION     0.000    0.065     0  03:00           0       0.485       1.372
  J7                   JUNCTION     0.000    0.070     0  00:36           0       0.542       0.804
  J8                   JUNCTION     0.265    0.333     0  00:42         2.5        3.04       0.196
  J9                   JUNCTION     0.000    0.175     0  02:26           0        1.76       1.660
  Out_to_WWTP          OUTFALL      0.000    0.271     0  02:03           0        3.89       0.000
  T1                   STORAGE      0.000    0.532     0  00:46           0           6      16.135
  T2                   STORAGE      0.000    0.247     0  00:30           0         1.7      64.609
  T3                   STORAGE      0.000    0.468     0  01:11           0        4.63      35.148
  T4                   STORAGE      0.000    0.097     0  01:19           0       0.953      24.883
  T5                   STORAGE      0.000    0.169     0  00:36           0        1.41      46.535
  T6                   STORAGE      0.000    0.333     0  00:44           0        3.04      29.242
  
  
  **********************
  Node Surcharge Summary
  **********************
  
  No nodes were surcharged.
  
  
  *********************
  Node Flooding Summary
  *********************
  
  Flooding refers to all water that overflows a node, whether it ponds or not.
  --------------------------------------------------------------------------
                                                             Total   Maximum
                                 Maximum   Time of Max       Flood    Ponded
                        Hours       Rate    Occurrence      Volume     Depth
  Node                 Flooded       CMS   days hr:min    10^6 ltr    Meters
  --------------------------------------------------------------------------
  T1                      2.55     0.251      0  02:37       0.571     0.000
  T6                      0.42     0.094      0  02:26       0.075     0.000
  
  
  **********************
  Storage Volume Summary
  **********************
  
  --------------------------------------------------------------------------------------------------
                         Average     Avg  Evap Exfil       Maximum     Max    Time of Max    Maximum
                          Volume    Pcnt  Pcnt  Pcnt        Volume    Pcnt     Occurrence    Outflow
  Storage Unit           1000 m3    Full  Loss  Loss       1000 m3    Full    days hr:min        CMS
  --------------------------------------------------------------------------------------------------
  T1                       0.521      74     0     0         0.700     100       0  02:01      0.271
  T2                       0.441      44     0     0         0.678      68       0  04:13      0.083
  T3                       1.196      46     0     0         2.120      82       0  04:08      0.171
  T4                       0.202      40     0     0         0.336      67       0  03:00      0.065
  T5                       0.300      60     0     0         0.462      92       0  03:34      0.038
  T6                       0.404      67     0     0         0.600     100       0  02:26      0.175
  
  
  ***********************
  Outfall Loading Summary
  ***********************
  
  -----------------------------------------------------------
                         Flow       Avg       Max       Total
                         Freq      Flow      Flow      Volume
  Outfall Node           Pcnt       CMS       CMS    10^6 ltr
  -----------------------------------------------------------
  Out_to_WWTP           98.46     0.221     0.271       3.885
  -----------------------------------------------------------
  System                98.46     0.221     0.271       3.885
  
  
  ********************
  Link Flow Summary
  ********************
  
  -----------------------------------------------------------------------------
                                 Maximum  Time of Max   Maximum    Max/    Max/
                                  |Flow|   Occurrence   |Veloc|    Full    Full
  Link                 Type          CMS  days hr:min     m/sec    Flow   Depth
  -----------------------------------------------------------------------------
  C1                   CONDUIT     0.038     0  03:47      1.09    0.01    0.11
  C10                  CONDUIT     0.333     0  00:44      1.66    0.03    0.56
  C11                  CONDUIT     0.226     0  04:09      1.82    0.01    0.09
  C12                  CONDUIT     0.175     0  02:51      1.54    0.01    0.09
  C13                  CONDUIT     0.468     0  01:11      2.57    0.03    0.55
  C14                  CONDUIT     0.271     0  02:03      2.08    0.02    0.09
  C15                  CONDUIT     0.232     0  00:30      2.51    0.74    0.56
  C16                  CONDUIT     0.229     0  01:11      1.40    0.02    0.10
  C17                  CONDUIT     0.416     0  00:31      2.35    0.02    0.11
  C18                  CONDUIT     0.247     0  00:30      3.36    0.01    0.53
  C19                  CONDUIT     0.079     0  01:30      0.84    0.03    0.18
  C2                   CONDUIT     0.065     0  03:07      1.68    0.07    0.21
  C20                  CONDUIT     0.347     0  00:36      2.77    0.01    0.10
  C21                  CONDUIT     0.108     0  00:40      1.64    0.62    0.45
  C22                  CONDUIT     0.108     0  00:41      1.27    0.05    0.23
  C23                  CONDUIT     0.532     0  00:46      2.10    0.06    0.58
  C3                   CONDUIT     0.172     0  04:08      2.05    0.07    0.16
  C4                   CONDUIT     0.169     0  00:36      3.06    0.04    0.57
  C5                   CONDUIT     0.044     0  01:15      1.23    0.76    0.71
  C6                   CONDUIT     0.043     0  01:28      1.21    0.69    0.51
  C7                   CONDUIT     0.097     0  01:19      1.45    0.02    0.55
  C8                   CONDUIT     0.070     0  00:36      1.31    0.88    0.64
  C9                   CONDUIT     0.069     0  00:42      1.10    0.24    0.35
  V1                   ORIFICE     0.271     0  02:02                      1.00
  V2                   ORIFICE     0.083     0  01:30                      1.00
  V3                   ORIFICE     0.171     0  04:09                      1.00
  V4                   ORIFICE     0.065     0  03:00                      1.00
  V5                   ORIFICE     0.038     0  03:34                      1.00
  V6                   ORIFICE     0.175     0  02:26                      1.00
  
  
  ***************************
  Flow Classification Summary
  ***************************
  
  -------------------------------------------------------------------------------------
                      Adjusted    ---------- Fraction of Time in Flow Class ---------- 
                       /Actual         Up    Down  Sub   Sup   Up    Down  Norm  Inlet 
  Conduit               Length    Dry  Dry   Dry   Crit  Crit  Crit  Crit  Ltd   Ctrl  
  -------------------------------------------------------------------------------------
  C1                      1.00   0.00  0.00  0.00  0.43  0.56  0.00  0.00  0.93  0.00
  C10                     1.00   0.00  0.00  0.00  0.93  0.07  0.00  0.00  0.96  0.00
  C11                     1.00   0.00  0.00  0.00  0.62  0.37  0.00  0.00  1.00  0.00
  C12                     1.00   0.00  0.00  0.00  0.60  0.40  0.00  0.00  0.90  0.00
  C13                     1.00   0.00  0.00  0.00  0.88  0.12  0.00  0.00  0.91  0.00
  C14                     1.00   0.01  0.01  0.00  0.00  0.98  0.00  0.00  0.00  0.00
  C15                     1.00   0.00  0.00  0.00  0.00  1.00  0.00  0.00  0.00  0.00
  C16                     1.00   0.00  0.00  0.00  0.21  0.79  0.00  0.00  0.25  0.00
  C17                     1.00   0.00  0.00  0.00  0.23  0.77  0.00  0.00  0.93  0.00
  C18                     1.00   0.00  0.00  0.00  0.92  0.08  0.00  0.00  0.95  0.00
  C19                     1.00   0.00  0.00  0.00  1.00  0.00  0.00  0.00  1.00  0.00
  C2                      1.00   0.00  0.00  0.00  0.50  0.49  0.00  0.00  0.98  0.00
  C20                     1.00   0.00  0.00  0.00  0.28  0.72  0.00  0.00  0.95  0.00
  C21                     1.00   0.00  0.00  0.00  0.00  1.00  0.00  0.00  0.00  0.00
  C22                     1.00   0.00  0.00  0.00  0.65  0.35  0.00  0.00  1.00  0.00
  C23                     1.00   0.00  0.00  0.00  0.90  0.10  0.00  0.00  0.92  0.00
  C3                      1.00   0.00  0.01  0.00  0.04  0.95  0.00  0.00  0.57  0.00
  C4                      1.00   0.00  0.00  0.00  0.93  0.07  0.00  0.00  0.97  0.00
  C5                      1.00   0.00  0.00  0.00  0.89  0.11  0.00  0.00  0.97  0.00
  C6                      1.00   0.00  0.00  0.00  0.01  0.98  0.00  0.00  0.01  0.00
  C7                      1.00   0.00  0.00  0.00  0.91  0.09  0.00  0.00  0.95  0.00
  C8                      1.00   0.00  0.00  0.00  0.05  0.95  0.00  0.00  0.00  0.00
  C9                      1.00   0.00  0.00  0.00  1.00  0.00  0.00  0.00  1.00  0.00
  
  
  *************************
  Conduit Surcharge Summary
  *************************
  
  ----------------------------------------------------------------------------
                                                           Hours        Hours 
                         --------- Hours Full --------   Above Full   Capacity
  Conduit                Both Ends  Upstream  Dnstream   Normal Flow   Limited
  ----------------------------------------------------------------------------
  C10                         0.01      0.01      4.00      0.01         0.01
  C13                         0.01      0.01      3.07      0.01         0.01
  C18                         0.01      0.01      3.19      0.01         0.01
  C23                         0.01      0.01      4.07      0.01         0.01
  C4                          0.01      0.01      4.14      0.01         0.01
  C7                          0.01      0.01      3.81      0.01         0.01
  

  Analysis begun on:  Sun Jul 17 21:54:12 2022
  Analysis ended on:  Sun Jul 17 21:54:12 2022
  Total elapsed time: < 1 sec