
  EPA STORM WATER MANAGEMENT MODEL - VERSION 5.1 (Build 5.3.0.dev0)
  --------------------------------------------------------------

  
  *********************************************************
  NOTE: The summary statistics displayed in this report are
  based on results found at every computational time step,  
  not just on results from each reporting time step.
  *********************************************************
  
  ****************
  Analysis Options
  ****************
  Flow Units ............... CMS
  Process Models:
    Rainfall/Runoff ........ YES
    RDII ................... NO
    Snowmelt ............... NO
    Groundwater ............ NO
    Flow Routing ........... YES
    Ponding Allowed ........ NO
    Water Quality .......... NO
  Infiltration Method ...... HORTON
  Flow Routing Method ...... DYNWAVE
  Surcharge Method ......... EXTRAN
  Starting Date ............ 03/30/2009 07:45:00
  Ending Date .............. 03/30/2009 20:10:00
  Antecedent Dry Days ...... 0.0
  Report Time Step ......... 00:05:00
  Wet Time Step ............ 00:05:00
  Dry Time Step ............ 01:00:00
  Routing Time Step ........ 30.00 sec
  Variable Time Step ....... YES
  Maximum Trials ........... 8
  Number of Threads ........ 1
  Head Tolerance ........... 0.001500 m
  
  
  **************************        Volume         Depth
  Runoff Quantity Continuity     hectare-m            mm
  **************************     ---------       -------
  Total Precipitation ......         1.064         5.906
  Evaporation Loss .........         0.000         0.000
  Infiltration Loss ........         0.000         0.000
  Surface Runoff ...........         1.031         5.719
  Final Storage ............         0.035         0.193
  Continuity Error (%) .....        -0.105
  
  
  **************************        Volume        Volume
  Flow Routing Continuity        hectare-m      10^6 ltr
  **************************     ---------     ---------
  Dry Weather Inflow .......         0.559         5.592
  Wet Weather Inflow .......         1.030        10.301
  Groundwater Inflow .......         0.000         0.000
  RDII Inflow ..............         0.000         0.000
  External Inflow ..........         0.000         0.000
  External Outflow .........         0.862         8.621
  Flooding Loss ............         0.001         0.007
  Evaporation Loss .........         0.000         0.000
  Exfiltration Loss ........         0.000         0.000
  Initial Stored Volume ....         0.000         0.000
  Final Stored Volume ......         0.574         5.740
  Continuity Error (%) .....         9.598
  
  
  *************************
  Highest Continuity Errors
  *************************
  Node T2 (31.53%)
  Node T6 (25.30%)
  Node T3 (21.30%)
  Node T4 (16.34%)
  Node T5 (16.17%)
  
  
  ***************************
  Time-Step Critical Elements
  ***************************
  Link C15 (30.99%)
  
  
  ********************************
  Highest Flow Instability Indexes
  ********************************
  Link C19 (4)
  Link C15 (3)
  Link C11 (3)
  Link C23 (3)
  Link C13 (3)
  
  
  *************************
  Routing Time Step Summary
  *************************
  Minimum Time Step           :     0.07 sec
  Average Time Step           :    28.14 sec
  Maximum Time Step           :    30.00 sec
  Percent in Steady State     :    10.47
  Average Iterations per Step :     2.04
  Percent Not Converging      :     0.00
  
  
  ***************************
  Subcatchment Runoff Summary
  ***************************
  
  ------------------------------------------------------------------------------------------------------------------------------
                            Total      Total      Total      Total     Imperv       Perv      Total       Total     Peak  Runoff
                           Precip      Runon       Evap      Infil     Runoff     Runoff     Runoff      Runoff   Runoff   Coeff
  Subcatchment                 mm         mm         mm         mm         mm         mm         mm    10^6 ltr      CMS
  ------------------------------------------------------------------------------------------------------------------------------
  SC01                       6.39       0.00       0.00       0.00       6.26       0.00       6.26        2.07     0.14   0.980
  SC010                      6.39       0.00       0.00       0.00       6.21       0.00       6.21        0.73     0.05   0.972
  SC02                       5.44       0.00       0.00       0.00       5.31       0.00       5.31        1.21     0.08   0.976
  SC03                       5.65       0.00       0.00       0.00       5.56       0.00       5.56        1.00     0.09   0.984
  SC04                       5.44       0.00       0.00       0.00       5.18       0.00       5.18        0.36     0.02   0.952
  SC05                       6.39       0.00       0.00       0.00       6.25       0.00       6.25        0.98     0.07   0.978
  SC06                       5.87       0.00       0.00       0.00       5.53       0.00       5.53        1.80     0.11   0.942
  SC07                       5.44       0.00       0.00       0.00       5.18       0.00       5.18        0.25     0.02   0.952
  SC08                       5.65       0.00       0.00       0.00       5.47       0.00       5.47        1.53     0.12   0.969
  SC09                       5.87       0.00       0.00       0.00       5.66       0.00       5.66        0.39     0.03   0.963
  
  
  ******************
  Node Depth Summary
  ******************
  
  ---------------------------------------------------------------------------------
                                 Average  Maximum  Maximum  Time of Max    Reported
                                   Depth    Depth      HGL   Occurrence   Max Depth
  Node                 Type       Meters   Meters   Meters  days hr:min      Meters
  ---------------------------------------------------------------------------------
  CSO10                JUNCTION     0.11     0.18    30.18     0  04:05        0.18
  CSO7                 JUNCTION     0.09     0.13    34.13     0  04:25        0.13
  CSO8                 JUNCTION     0.11     0.21    32.21     0  03:20        0.21
  CSO9                 JUNCTION     0.10     0.16    40.16     0  03:20        0.16
  J1                   JUNCTION     0.07     0.10    34.10     0  04:06        0.10
  J10                  JUNCTION     0.09     0.15    29.15     0  03:23        0.15
  J11                  JUNCTION     0.09     0.16    31.16     0  03:25        0.16
  J12                  JUNCTION     0.12     0.19    26.19     0  03:27        0.19
  J13                  JUNCTION     0.06     0.09    29.09     0  04:20        0.09
  J14                  JUNCTION     0.10     0.17    20.17     0  09:18        0.17
  J15                  JUNCTION     0.15     0.22    15.22     0  04:16        0.22
  J16                  JUNCTION     0.06     0.10    30.10     0  04:06        0.10
  J17                  JUNCTION     0.05     0.12    20.12     0  10:02        0.12
  J18                  JUNCTION     0.05     0.09    29.09     0  04:08        0.09
  J19                  JUNCTION     0.14     0.17     8.17     0  05:18        0.17
  J2                   JUNCTION     0.06     0.07    25.07     0  06:26        0.07
  J3                   JUNCTION     0.10     0.15    18.15     0  07:15        0.15
  J4                   JUNCTION     0.11     0.15    33.15     0  04:26        0.15
  J5                   JUNCTION     0.06     0.08    32.08     0  04:25        0.08
  J6                   JUNCTION     0.06     0.10    25.10     0  07:16        0.10
  J7                   JUNCTION     0.08     0.12    39.12     0  03:22        0.12
  J8                   JUNCTION     0.10     0.14    36.14     0  03:21        0.14
  J9                   JUNCTION     0.09     0.16    29.16     0  10:30        0.16
  Out_to_WWTP          OUTFALL      0.14     0.17     6.17     0  05:18        0.17
  T1                   STORAGE      2.90     4.50    14.50     0  05:17        4.49
  T2                   STORAGE      1.57     2.53    23.53     0  12:25        2.53
  T3                   STORAGE      2.12     3.54    25.54     0  11:58        3.54
  T4                   STORAGE      1.60     2.45    29.45     0  07:10        2.45
  T5                   STORAGE      2.49     3.46    30.46     0  06:24        3.46
  T6                   STORAGE      2.96     5.00    36.00     0  12:14        5.00
  
  
  *******************
  Node Inflow Summary
  *******************
  
  -------------------------------------------------------------------------------------------------
                                  Maximum  Maximum                  Lateral       Total        Flow
                                  Lateral    Total  Time of Max      Inflow      Inflow     Balance
                                   Inflow   Inflow   Occurrence      Volume      Volume       Error
  Node                 Type           CMS      CMS  days hr:min    10^6 ltr    10^6 ltr     Percent
  -------------------------------------------------------------------------------------------------
  CSO10                JUNCTION     0.055    0.055     0  04:05       0.928       0.928       0.048
  CSO7                 JUNCTION     0.029    0.029     0  04:25       0.659       0.663       0.039
  CSO8                 JUNCTION     0.131    0.131     0  03:20        1.91        1.92      -0.017
  CSO9                 JUNCTION     0.036    0.036     0  03:20       0.669       0.668       0.054
  J1                   JUNCTION     0.090    0.090     0  04:05        1.77        1.77       0.001
  J10                  JUNCTION     0.108    0.234     0  03:21        1.55        3.47       0.062
  J11                  JUNCTION     0.000    0.131     0  03:20           0        1.92       0.070
  J12                  JUNCTION     0.000    0.320     0  03:25           0        5.74       0.555
  J13                  JUNCTION     0.102    0.102     0  04:20        1.87         1.9      -0.220
  J14                  JUNCTION     0.000    0.147     0  09:55           0        2.65       0.204
  J15                  JUNCTION     0.000    0.453     0  04:15           0        9.13      -0.105
  J16                  JUNCTION     0.167    0.167     0  04:05        2.85        2.85       0.002
  J17                  JUNCTION     0.000    0.096     0  09:55           0       0.796       2.547
  J18                  JUNCTION     0.000    0.054     0  04:06           0       0.927      -0.048
  J19                  JUNCTION     0.000    0.256     0  05:17           0        8.63       0.101
  J2                   JUNCTION     0.000    0.033     0  06:24           0        1.18       0.395
  J3                   JUNCTION     0.000    0.230     0  07:15           0         4.6       0.419
  J4                   JUNCTION     0.000    0.029     0  04:25           0       0.662       0.416
  J5                   JUNCTION     0.028    0.056     0  04:25       0.538         1.2       0.046
  J6                   JUNCTION     0.000    0.056     0  07:10           0       0.781       0.405
  J7                   JUNCTION     0.000    0.036     0  03:20           0       0.668       0.376
  J8                   JUNCTION     0.155    0.188     0  03:20        3.14         3.8       0.079
  J9                   JUNCTION     0.000    0.169     0  09:45           0        2.23      -1.574
  Out_to_WWTP          OUTFALL      0.000    0.256     0  05:18           0        8.62       0.000
  T1                   STORAGE      0.000    0.429     0  04:16           0        9.14       1.809
  T2                   STORAGE      0.000    0.102     0  04:21           0         1.9      46.042
  T3                   STORAGE      0.000    0.317     0  03:28           0        5.71      27.062
  T4                   STORAGE      0.000    0.056     0  04:25           0         1.2      19.529
  T5                   STORAGE      0.000    0.089     0  04:06           0        1.77      19.286
  T6                   STORAGE      0.000    0.186     0  03:21           0         3.8      33.867
  
  
  **********************
  Node Surcharge Summary
  **********************
  
  No nodes were surcharged.
  
  
  *********************
  Node Flooding Summary
  *********************
  
  Flooding refers to all water that overflows a node, whether it ponds or not.
  --------------------------------------------------------------------------
                                                             Total   Maximum
                                 Maximum   Time of Max       Flood    Ponded
                        Hours       Rate    Occurrence      Volume     Depth
  Node                 Flooded       CMS   days hr:min    10^6 ltr    Meters
  --------------------------------------------------------------------------
  T6                      0.19     0.014      0  12:14       0.007     0.000
  
  
  **********************
  Storage Volume Summary
  **********************
  
  --------------------------------------------------------------------------------------------------
                         Average     Avg  Evap Exfil       Maximum     Max    Time of Max    Maximum
                          Volume    Pcnt  Pcnt  Pcnt        Volume    Pcnt     Occurrence    Outflow
  Storage Unit           1000 m3    Full  Loss  Loss       1000 m3    Full    days hr:min        CMS
  --------------------------------------------------------------------------------------------------
  T1                       0.406      58     0     0         0.630      90       0  05:17      0.256
  T2                       0.315      31     0     0         0.505      51       0  12:25      0.096
  T3                       1.103      42     0     0         1.840      71       0  11:58      0.147
  T4                       0.160      32     0     0         0.245      49       0  07:10      0.056
  T5                       0.249      50     0     0         0.346      69       0  06:24      0.033
  T6                       0.355      59     0     0         0.600     100       0  12:14      0.169
  
  
  ***********************
  Outfall Loading Summary
  ***********************
  
  -----------------------------------------------------------
                         Flow       Avg       Max       Total
                         Freq      Flow      Flow      Volume
  Outfall Node           Pcnt       CMS       CMS    10^6 ltr
  -----------------------------------------------------------
  Out_to_WWTP           99.30     0.195     0.256       8.621
  -----------------------------------------------------------
  System                99.30     0.195     0.256       8.621
  
  
  ********************
  Link Flow Summary
  ********************
  
  -----------------------------------------------------------------------------
                                 Maximum  Time of Max   Maximum    Max/    Max/
                                  |Flow|   Occurrence   |Veloc|    Full    Full
  Link                 Type          CMS  days hr:min     m/sec    Flow   Depth
  -----------------------------------------------------------------------------
  C1                   CONDUIT     0.033     0  06:26      1.03    0.01    0.11
  C10                  CONDUIT     0.186     0  03:21      1.66    0.02    0.55
  C11                  CONDUIT     0.223     0  07:15      1.82    0.01    0.09
  C12                  CONDUIT     0.158     0  10:00      1.43    0.01    0.08
  C13                  CONDUIT     0.317     0  03:28      1.54    0.02    0.54
  C14                  CONDUIT     0.256     0  05:18      2.05    0.01    0.08
  C15                  CONDUIT     0.131     0  03:20      2.14    0.42    0.41
  C16                  CONDUIT     0.130     0  03:25      1.17    0.01    0.08
  C17                  CONDUIT     0.233     0  03:23      1.83    0.01    0.08
  C18                  CONDUIT     0.102     0  04:21      3.36    0.00    0.52
  C19                  CONDUIT     0.095     0  10:02      1.18    0.03    0.16
  C2                   CONDUIT     0.055     0  07:17      1.60    0.06    0.21
  C20                  CONDUIT     0.165     0  04:06      2.34    0.01    0.08
  C21                  CONDUIT     0.054     0  04:06      1.38    0.31    0.31
  C22                  CONDUIT     0.053     0  04:08      0.85    0.02    0.19
  C23                  CONDUIT     0.429     0  04:16      1.24    0.05    0.57
  C3                   CONDUIT     0.148     0  09:48      2.06    0.06    0.15
  C4                   CONDUIT     0.089     0  04:06      3.06    0.02    0.55
  C5                   CONDUIT     0.029     0  04:25      1.23    0.49    0.55
  C6                   CONDUIT     0.028     0  04:26      1.10    0.45    0.39
  C7                   CONDUIT     0.056     0  04:25      1.44    0.01    0.54
  C8                   CONDUIT     0.036     0  03:20      1.10    0.45    0.43
  C9                   CONDUIT     0.035     0  03:22      0.87    0.12    0.26
  V1                   ORIFICE     0.256     0  05:17                      1.00
  V2                   ORIFICE     0.096     0  09:55                      1.00
  V3                   ORIFICE     0.147     0  09:55                      1.00
  V4                   ORIFICE     0.056     0  07:10                      1.00
  V5                   ORIFICE     0.033     0  06:24                      1.00
  V6                   ORIFICE     0.169     0  09:45                      1.00
  
  
  ***************************
  Flow Classification Summary
  ***************************
  
  -------------------------------------------------------------------------------------
                      Adjusted    ---------- Fraction of Time in Flow Class ---------- 
                       /Actual         Up    Down  Sub   Sup   Up    Down  Norm  Inlet 
  Conduit               Length    Dry  Dry   Dry   Crit  Crit  Crit  Crit  Ltd   Ctrl  
  -------------------------------------------------------------------------------------
  C1                      1.00   0.00  0.00  0.00  0.37  0.63  0.00  0.00  0.97  0.00
  C10                     1.00   0.00  0.00  0.00  0.96  0.04  0.00  0.00  0.98  0.00
  C11                     1.00   0.00  0.00  0.00  0.11  0.89  0.00  0.00  1.00  0.00
  C12                     1.00   0.00  0.00  0.00  0.71  0.28  0.00  0.00  0.98  0.00
  C13                     1.00   0.00  0.00  0.00  0.92  0.08  0.00  0.00  0.94  0.00
  C14                     1.00   0.00  0.00  0.00  0.00  0.99  0.00  0.00  0.34  0.00
  C15                     1.00   0.00  0.00  0.00  0.00  1.00  0.00  0.00  0.00  0.00
  C16                     1.00   0.00  0.00  0.00  0.22  0.78  0.00  0.00  0.25  0.00
  C17                     1.00   0.00  0.00  0.00  0.02  0.98  0.00  0.00  0.98  0.00
  C18                     1.00   0.00  0.00  0.00  0.97  0.03  0.00  0.00  0.98  0.00
  C19                     1.00   0.00  0.00  0.00  0.98  0.02  0.00  0.00  1.00  0.00
  C2                      1.00   0.00  0.00  0.00  0.34  0.66  0.00  0.00  0.99  0.00
  C20                     1.00   0.00  0.00  0.00  0.44  0.56  0.00  0.00  0.99  0.00
  C21                     1.00   0.00  0.00  0.00  0.00  1.00  0.00  0.00  0.00  0.00
  C22                     1.00   0.00  0.00  0.00  0.98  0.01  0.00  0.00  1.00  0.00
  C23                     1.00   0.00  0.00  0.00  0.93  0.07  0.00  0.00  0.97  0.00
  C3                      1.00   0.00  0.00  0.00  0.03  0.97  0.00  0.00  0.60  0.00
  C4                      1.00   0.00  0.00  0.00  0.97  0.03  0.00  0.00  0.99  0.00
  C5                      1.00   0.00  0.00  0.00  0.96  0.04  0.00  0.00  0.99  0.00
  C6                      1.00   0.00  0.00  0.00  0.01  0.99  0.00  0.00  0.00  0.00
  C7                      1.00   0.00  0.00  0.00  0.97  0.03  0.00  0.00  0.98  0.00
  C8                      1.00   0.00  0.00  0.00  0.00  1.00  0.00  0.00  0.00  0.00
  C9                      1.00   0.00  0.00  0.00  1.00  0.00  0.00  0.00  1.00  0.00
  
  
  *************************
  Conduit Surcharge Summary
  *************************
  
  ----------------------------------------------------------------------------
                                                           Hours        Hours 
                         --------- Hours Full --------   Above Full   Capacity
  Conduit                Both Ends  Upstream  Dnstream   Normal Flow   Limited
  ----------------------------------------------------------------------------
  C10                         0.01      0.01      8.84      0.01         0.01
  C13                         0.01      0.01      7.91      0.01         0.01
  C18                         0.01      0.01      6.30      0.01         0.01
  C23                         0.01      0.01      9.73      0.01         0.01
  C4                          0.01      0.01      9.94      0.01         0.01
  C7                          0.01      0.01      8.61      0.01         0.01
  

  Analysis begun on:  Sun Jul 17 21:26:58 2022
  Analysis ended on:  Sun Jul 17 21:27:00 2022
  Total elapsed time: 00:00:02