
  EPA STORM WATER MANAGEMENT MODEL - VERSION 5.1 (Build 5.3.0.dev0)
  --------------------------------------------------------------

  
  *********************************************************
  NOTE: The summary statistics displayed in this report are
  based on results found at every computational time step,  
  not just on results from each reporting time step.
  *********************************************************
  
  ****************
  Analysis Options
  ****************
  Flow Units ............... CMS
  Process Models:
    Rainfall/Runoff ........ YES
    RDII ................... NO
    Snowmelt ............... NO
    Groundwater ............ NO
    Flow Routing ........... YES
    Ponding Allowed ........ NO
    Water Quality .......... NO
  Infiltration Method ...... HORTON
  Flow Routing Method ...... DYNWAVE
  Surcharge Method ......... EXTRAN
  Starting Date ............ 03/07/2009 09:45:00
  Ending Date .............. 03/07/2009 23:25:00
  Antecedent Dry Days ...... 0.0
  Report Time Step ......... 00:05:00
  Wet Time Step ............ 00:05:00
  Dry Time Step ............ 01:00:00
  Routing Time Step ........ 30.00 sec
  Variable Time Step ....... YES
  Maximum Trials ........... 8
  Number of Threads ........ 1
  Head Tolerance ........... 0.001500 m
  
  
  **************************        Volume         Depth
  Runoff Quantity Continuity     hectare-m            mm
  **************************     ---------       -------
  Total Precipitation ......         1.864        10.346
  Evaporation Loss .........         0.000         0.000
  Infiltration Loss ........         0.000         0.000
  Surface Runoff ...........         1.836        10.191
  Final Storage ............         0.029         0.163
  Continuity Error (%) .....        -0.080
  
  
  **************************        Volume        Volume
  Flow Routing Continuity        hectare-m      10^6 ltr
  **************************     ---------     ---------
  Dry Weather Inflow .......         0.529         5.293
  Wet Weather Inflow .......         1.836        18.361
  Groundwater Inflow .......         0.000         0.000
  RDII Inflow ..............         0.000         0.000
  External Inflow ..........         0.000         0.000
  External Outflow .........         0.994         9.943
  Flooding Loss ............         0.389         3.890
  Evaporation Loss .........         0.000         0.000
  Exfiltration Loss ........         0.000         0.000
  Initial Stored Volume ....         0.000         0.000
  Final Stored Volume ......         0.746         7.464
  Continuity Error (%) .....         9.961
  
  
  *************************
  Highest Continuity Errors
  *************************
  Node T2 (30.84%)
  Node T5 (15.98%)
  Node T6 (14.24%)
  Node T4 (13.81%)
  Node T3 (13.41%)
  
  
  ***************************
  Time-Step Critical Elements
  ***************************
  Link C15 (54.52%)
  
  
  ********************************
  Highest Flow Instability Indexes
  ********************************
  Link C13 (6)
  Link C11 (3)
  Link C23 (3)
  Link C19 (2)
  Link C3 (2)
  
  
  *************************
  Routing Time Step Summary
  *************************
  Minimum Time Step           :     0.84 sec
  Average Time Step           :    26.06 sec
  Maximum Time Step           :    30.00 sec
  Percent in Steady State     :     5.13
  Average Iterations per Step :     2.01
  Percent Not Converging      :     0.00
  
  
  ***************************
  Subcatchment Runoff Summary
  ***************************
  
  ------------------------------------------------------------------------------------------------------------------------------
                            Total      Total      Total      Total     Imperv       Perv      Total       Total     Peak  Runoff
                           Precip      Runon       Evap      Infil     Runoff     Runoff     Runoff      Runoff   Runoff   Coeff
  Subcatchment                 mm         mm         mm         mm         mm         mm         mm    10^6 ltr      CMS
  ------------------------------------------------------------------------------------------------------------------------------
  SC01                       9.82       0.00       0.00       0.00       9.73       0.00       9.73        3.21     0.30   0.990
  SC010                      9.82       0.00       0.00       0.00       9.69       0.00       9.69        1.14     0.10   0.987
  SC02                      10.00       0.00       0.00       0.00       9.89       0.00       9.89        2.25     0.22   0.989
  SC03                      11.07       0.00       0.00       0.00      11.00       0.00      11.00        1.98     0.22   0.994
  SC04                      10.00       0.00       0.00       0.00       9.76       0.00       9.76        0.67     0.06   0.976
  SC05                       9.82       0.00       0.00       0.00       9.72       0.00       9.72        1.52     0.14   0.990
  SC06                      10.61       0.00       0.00       0.00      10.30       0.00      10.30        3.35     0.32   0.971
  SC07                      10.00       0.00       0.00       0.00       9.77       0.00       9.77        0.46     0.04   0.977
  SC08                      11.07       0.00       0.00       0.00      10.93       0.00      10.93        3.06     0.32   0.987
  SC09                      10.61       0.00       0.00       0.00      10.43       0.00      10.43        0.72     0.08   0.983
  
  
  ******************
  Node Depth Summary
  ******************
  
  ---------------------------------------------------------------------------------
                                 Average  Maximum  Maximum  Time of Max    Reported
                                   Depth    Depth      HGL   Occurrence   Max Depth
  Node                 Type       Meters   Meters   Meters  days hr:min      Meters
  ---------------------------------------------------------------------------------
  CSO10                JUNCTION     0.12     0.27    30.27     0  08:15        0.27
  CSO7                 JUNCTION     0.10     0.18    34.18     0  08:20        0.18
  CSO8                 JUNCTION     0.15     0.40    32.40     0  08:20        0.39
  CSO9                 JUNCTION     0.12     0.31    40.31     0  08:22        0.30
  J1                   JUNCTION     0.07     0.13    34.13     0  08:15        0.13
  J10                  JUNCTION     0.11     0.22    29.22     0  08:23        0.22
  J11                  JUNCTION     0.11     0.24    31.24     0  08:23        0.24
  J12                  JUNCTION     0.40     1.01    27.01     0  10:01        1.01
  J13                  JUNCTION     0.07     0.13    29.13     0  08:20        0.13
  J14                  JUNCTION     0.13     0.19    20.19     0  10:23        0.19
  J15                  JUNCTION     0.18     0.28    15.28     0  08:20        0.28
  J16                  JUNCTION     0.07     0.14    30.14     0  08:15        0.14
  J17                  JUNCTION     0.06     0.14    20.14     0  10:13        0.14
  J18                  JUNCTION     0.06     0.12    29.12     0  08:17        0.12
  J19                  JUNCTION     0.15     0.17     8.17     0  07:24        0.17
  J2                   JUNCTION     0.06     0.08    25.08     0  09:09        0.08
  J3                   JUNCTION     0.12     0.17    18.17     0  10:10        0.17
  J4                   JUNCTION     0.12     0.21    33.21     0  08:24        0.21
  J5                   JUNCTION     0.06     0.11    32.11     0  08:23        0.11
  J6                   JUNCTION     0.06     0.12    25.12     0  10:12        0.12
  J7                   JUNCTION     0.09     0.18    39.18     0  08:25        0.18
  J8                   JUNCTION     0.11     0.21    36.21     0  08:23        0.21
  J9                   JUNCTION     0.11     0.16    29.16     0  08:55        0.16
  Out_to_WWTP          OUTFALL      0.15     0.17     6.17     0  12:10        0.17
  T1                   STORAGE      3.39     5.00    15.00     0  07:22        5.00
  T2                   STORAGE      2.41     4.48    25.48     0  12:01        4.48
  T3                   STORAGE      2.77     5.00    27.00     0  09:31        5.00
  T4                   STORAGE      2.30     4.13    31.13     0  10:00        4.13
  T5                   STORAGE      2.95     5.00    32.00     0  08:27        5.00
  T6                   STORAGE      3.07     5.00    36.00     0  08:27        5.00
  
  
  *******************
  Node Inflow Summary
  *******************
  
  -------------------------------------------------------------------------------------------------
                                  Maximum  Maximum                  Lateral       Total        Flow
                                  Lateral    Total  Time of Max      Inflow      Inflow     Balance
                                   Inflow   Inflow   Occurrence      Volume      Volume       Error
  Node                 Type           CMS      CMS  days hr:min    10^6 ltr    10^6 ltr     Percent
  -------------------------------------------------------------------------------------------------
  CSO10                JUNCTION     0.107    0.107     0  08:15        1.33        1.33      -0.061
  CSO7                 JUNCTION     0.049    0.049     0  08:20       0.859        0.86      -0.068
  CSO8                 JUNCTION     0.319    0.319     0  08:20        3.37        3.37       0.020
  CSO9                 JUNCTION     0.081    0.081     0  08:20       0.987       0.988      -0.002
  J1                   JUNCTION     0.154    0.154     0  08:15        2.28        2.28      -0.190
  J10                  JUNCTION     0.231    0.535     0  08:22         2.5        5.88      -0.140
  J11                  JUNCTION     0.000    0.318     0  08:20           0        3.37       0.002
  J12                  JUNCTION     0.000    0.702     0  08:24           0        9.79       6.283
  J13                  JUNCTION     0.234    0.234     0  08:20        2.89        2.89      -0.233
  J14                  JUNCTION     0.000    0.190     0  09:36           0        4.81       0.861
  J15                  JUNCTION     0.000    0.713     0  08:20           0        13.7       0.364
  J16                  JUNCTION     0.313    0.313     0  08:15        3.96        3.96      -0.162
  J17                  JUNCTION     0.000    0.131     0  10:00           0        1.13      -2.924
  J18                  JUNCTION     0.000    0.106     0  08:15           0        1.33      -0.152
  J19                  JUNCTION     0.000    0.271     0  07:23           0        9.95       0.111
  J2                   JUNCTION     0.000    0.039     0  08:27           0        1.35       0.371
  J3                   JUNCTION     0.000    0.303     0  10:24           0        7.25       0.674
  J4                   JUNCTION     0.000    0.049     0  08:20           0       0.861       0.028
  J5                   JUNCTION     0.063    0.111     0  08:21       0.847        1.71      -0.080
  J6                   JUNCTION     0.000    0.072     0  10:00           0        1.14       0.384
  J7                   JUNCTION     0.000    0.080     0  08:24           0       0.988       0.171
  J8                   JUNCTION     0.340    0.416     0  08:20        4.63        5.63      -0.043
  J9                   JUNCTION     0.000    0.175     0  08:27           0        3.87      -0.032
  Out_to_WWTP          OUTFALL      0.000    0.271     0  07:24           0        9.94       0.000
  T1                   STORAGE      0.000    0.690     0  08:20           0        13.6       4.402
  T2                   STORAGE      0.000    0.234     0  08:20           0         2.9      44.597
  T3                   STORAGE      0.000    0.696     0  08:26           0        9.21      15.485
  T4                   STORAGE      0.000    0.110     0  08:23           0        1.71      16.019
  T5                   STORAGE      0.000    0.153     0  08:16           0        2.28      19.025
  T6                   STORAGE      0.000    0.415     0  08:23           0        5.63      16.608
  
  
  **********************
  Node Surcharge Summary
  **********************
  
  No nodes were surcharged.
  
  
  *********************
  Node Flooding Summary
  *********************
  
  Flooding refers to all water that overflows a node, whether it ponds or not.
  --------------------------------------------------------------------------
                                                             Total   Maximum
                                 Maximum   Time of Max       Flood    Ponded
                        Hours       Rate    Occurrence      Volume     Depth
  Node                 Flooded       CMS   days hr:min    10^6 ltr    Meters
  --------------------------------------------------------------------------
  T1                      4.69     0.419      0  08:21       2.609     0.000
  T3                      1.53     0.333      0  09:42       0.698     0.000
  T5                      2.14     0.085      0  08:27       0.202     0.000
  T6                      1.16     0.232      0  08:27       0.381     0.000
  
  
  **********************
  Storage Volume Summary
  **********************
  
  --------------------------------------------------------------------------------------------------
                         Average     Avg  Evap Exfil       Maximum     Max    Time of Max    Maximum
                          Volume    Pcnt  Pcnt  Pcnt        Volume    Pcnt     Occurrence    Outflow
  Storage Unit           1000 m3    Full  Loss  Loss       1000 m3    Full    days hr:min        CMS
  --------------------------------------------------------------------------------------------------
  T1                       0.475      68     0     0         0.700     100       0  07:22      0.271
  T2                       0.481      48     0     0         0.896      90       0  12:01      0.131
  T3                       1.441      55     0     0         2.600     100       0  09:31      0.254
  T4                       0.230      46     0     0         0.413      83       0  10:00      0.072
  T5                       0.295      59     0     0         0.500     100       0  08:27      0.039
  T6                       0.368      61     0     0         0.600     100       0  08:27      0.175
  
  
  ***********************
  Outfall Loading Summary
  ***********************
  
  -----------------------------------------------------------
                         Flow       Avg       Max       Total
                         Freq      Flow      Flow      Volume
  Outfall Node           Pcnt       CMS       CMS    10^6 ltr
  -----------------------------------------------------------
  Out_to_WWTP           99.42     0.209     0.271       9.943
  -----------------------------------------------------------
  System                99.42     0.209     0.271       9.943
  
  
  ********************
  Link Flow Summary
  ********************
  
  -----------------------------------------------------------------------------
                                 Maximum  Time of Max   Maximum    Max/    Max/
                                  |Flow|   Occurrence   |Veloc|    Full    Full
  Link                 Type          CMS  days hr:min     m/sec    Flow   Depth
  -----------------------------------------------------------------------------
  C1                   CONDUIT     0.039     0  09:09      1.04    0.01    0.12
  C10                  CONDUIT     0.415     0  08:23      1.69    0.04    0.57
  C11                  CONDUIT     0.293     0  10:10      1.95    0.01    0.11
  C12                  CONDUIT     0.175     0  08:55      1.43    0.01    0.29
  C13                  CONDUIT     0.696     0  08:26      1.57    0.04    0.75
  C14                  CONDUIT     0.271     0  07:24      2.08    0.02    0.09
  C15                  CONDUIT     0.318     0  08:20      2.65    1.01    0.70
  C16                  CONDUIT     0.313     0  08:23      1.54    0.03    0.12
  C17                  CONDUIT     0.532     0  08:23      2.37    0.03    0.29
  C18                  CONDUIT     0.234     0  08:20      3.22    0.01    0.53
  C19                  CONDUIT     0.130     0  10:14      1.24    0.04    0.21
  C2                   CONDUIT     0.072     0  10:13      1.65    0.08    0.24
  C20                  CONDUIT     0.311     0  08:15      2.30    0.01    0.10
  C21                  CONDUIT     0.106     0  08:15      1.64    0.61    0.44
  C22                  CONDUIT     0.106     0  08:17      1.12    0.05    0.25
  C23                  CONDUIT     0.690     0  08:20      1.26    0.08    0.59
  C3                   CONDUIT     0.192     0  10:24      2.16    0.07    0.18
  C4                   CONDUIT     0.153     0  08:16      2.44    0.04    0.57
  C5                   CONDUIT     0.049     0  08:20      1.25    0.83    0.76
  C6                   CONDUIT     0.048     0  08:24      1.23    0.76    0.54
  C7                   CONDUIT     0.110     0  08:23      1.47    0.03    0.56
  C8                   CONDUIT     0.080     0  08:24      1.30    1.00    0.77
  C9                   CONDUIT     0.079     0  08:25      1.12    0.27    0.39
  V1                   ORIFICE     0.271     0  07:23                      1.00
  V2                   ORIFICE     0.131     0  10:00                      1.00
  V3                   ORIFICE     0.190     0  09:36                      1.00
  V4                   ORIFICE     0.072     0  10:00                      1.00
  V5                   ORIFICE     0.039     0  08:27                      1.00
  V6                   ORIFICE     0.175     0  08:27                      1.00
  
  
  ***************************
  Flow Classification Summary
  ***************************
  
  -------------------------------------------------------------------------------------
                      Adjusted    ---------- Fraction of Time in Flow Class ---------- 
                       /Actual         Up    Down  Sub   Sup   Up    Down  Norm  Inlet 
  Conduit               Length    Dry  Dry   Dry   Crit  Crit  Crit  Crit  Ltd   Ctrl  
  -------------------------------------------------------------------------------------
  C1                      1.00   0.00  0.00  0.00  0.66  0.34  0.00  0.00  0.97  0.00
  C10                     1.00   0.00  0.00  0.00  0.97  0.03  0.00  0.00  0.99  0.00
  C11                     1.00   0.00  0.00  0.00  0.22  0.78  0.00  0.00  1.00  0.00
  C12                     1.00   0.00  0.00  0.00  0.85  0.15  0.00  0.00  0.97  0.00
  C13                     1.00   0.00  0.00  0.00  0.94  0.06  0.00  0.00  0.57  0.00
  C14                     1.00   0.00  0.00  0.00  0.01  0.99  0.00  0.00  0.35  0.00
  C15                     1.00   0.00  0.00  0.00  0.00  1.00  0.00  0.00  0.00  0.00
  C16                     1.00   0.00  0.00  0.00  0.28  0.72  0.00  0.00  0.20  0.00
  C17                     1.00   0.00  0.00  0.00  0.39  0.61  0.00  0.00  0.98  0.00
  C18                     1.00   0.00  0.00  0.00  0.97  0.03  0.00  0.00  0.99  0.00
  C19                     1.00   0.00  0.00  0.00  0.96  0.04  0.00  0.00  1.00  0.00
  C2                      1.00   0.00  0.00  0.00  0.58  0.42  0.00  0.00  0.99  0.00
  C20                     1.00   0.00  0.00  0.00  0.49  0.51  0.00  0.00  0.99  0.00
  C21                     1.00   0.00  0.00  0.00  0.00  1.00  0.00  0.00  0.00  0.00
  C22                     1.00   0.00  0.00  0.00  0.97  0.03  0.00  0.00  1.00  0.00
  C23                     1.00   0.00  0.00  0.00  0.94  0.06  0.00  0.00  0.97  0.00
  C3                      1.00   0.00  0.00  0.00  0.02  0.97  0.00  0.00  0.26  0.00
  C4                      1.00   0.00  0.00  0.00  0.98  0.02  0.00  0.00  0.99  0.00
  C5                      1.00   0.00  0.00  0.00  0.93  0.07  0.00  0.00  0.99  0.00
  C6                      1.00   0.00  0.00  0.00  0.00  0.99  0.00  0.00  0.00  0.00
  C7                      1.00   0.00  0.00  0.00  0.97  0.03  0.00  0.00  0.98  0.00
  C8                      1.00   0.00  0.00  0.00  0.13  0.87  0.00  0.00  0.00  0.00
  C9                      1.00   0.00  0.00  0.00  1.00  0.00  0.00  0.00  1.00  0.00
  
  
  *************************
  Conduit Surcharge Summary
  *************************
  
  ----------------------------------------------------------------------------
                                                           Hours        Hours 
                         --------- Hours Full --------   Above Full   Capacity
  Conduit                Both Ends  Upstream  Dnstream   Normal Flow   Limited
  ----------------------------------------------------------------------------
  C10                         0.01      0.01      9.94      0.01         0.01
  C13                         0.01      0.01      7.51      0.01         0.01
  C15                         0.01      0.01      0.01      0.04         0.01
  C18                         0.01      0.01      6.38      0.01         0.01
  C23                         0.01      0.01     10.56      0.01         0.01
  C4                          0.01      0.01     10.71      0.01         0.01
  C7                          0.01      0.01     10.24      0.01         0.01
  C8                          0.01      0.01      0.01      0.07         0.01
  

  Analysis begun on:  Sun Jul 17 21:22:59 2022
  Analysis ended on:  Sun Jul 17 21:23:01 2022
  Total elapsed time: 00:00:02