
  EPA STORM WATER MANAGEMENT MODEL - VERSION 5.1 (Build 5.3.0.dev0)
  --------------------------------------------------------------

  
  *********************************************************
  NOTE: The summary statistics displayed in this report are
  based on results found at every computational time step,  
  not just on results from each reporting time step.
  *********************************************************
  
  ****************
  Analysis Options
  ****************
  Flow Units ............... CMS
  Process Models:
    Rainfall/Runoff ........ YES
    RDII ................... NO
    Snowmelt ............... NO
    Groundwater ............ NO
    Flow Routing ........... YES
    Ponding Allowed ........ NO
    Water Quality .......... NO
  Infiltration Method ...... HORTON
  Flow Routing Method ...... DYNWAVE
  Surcharge Method ......... EXTRAN
  Starting Date ............ 06/28/2008 19:10:00
  Ending Date .............. 06/29/2008 13:20:00
  Antecedent Dry Days ...... 0.0
  Report Time Step ......... 00:05:00
  Wet Time Step ............ 00:05:00
  Dry Time Step ............ 01:00:00
  Routing Time Step ........ 30.00 sec
  Variable Time Step ....... YES
  Maximum Trials ........... 8
  Number of Threads ........ 1
  Head Tolerance ........... 0.001500 m
  
  
  **************************        Volume         Depth
  Runoff Quantity Continuity     hectare-m            mm
  **************************     ---------       -------
  Total Precipitation ......         1.654         9.180
  Evaporation Loss .........         0.000         0.000
  Infiltration Loss ........         0.000         0.000
  Surface Runoff ...........         1.634         9.069
  Final Storage ............         0.023         0.128
  Continuity Error (%) .....        -0.188
  
  
  **************************        Volume        Volume
  Flow Routing Continuity        hectare-m      10^6 ltr
  **************************     ---------     ---------
  Dry Weather Inflow .......         0.525         5.247
  Wet Weather Inflow .......         1.635        16.348
  Groundwater Inflow .......         0.000         0.000
  RDII Inflow ..............         0.000         0.000
  External Inflow ..........         0.000         0.000
  External Outflow .........         1.273        12.727
  Flooding Loss ............         0.058         0.583
  Evaporation Loss .........         0.000         0.000
  Exfiltration Loss ........         0.000         0.000
  Initial Stored Volume ....         0.000         0.000
  Final Stored Volume ......         0.638         6.380
  Continuity Error (%) .....         8.822
  
  
  *************************
  Highest Continuity Errors
  *************************
  Node T2 (24.92%)
  Node T5 (15.85%)
  Node T4 (13.91%)
  Node T3 (13.37%)
  Node T6 (7.15%)
  
  
  ***************************
  Time-Step Critical Elements
  ***************************
  Link C15 (27.93%)
  Link C5 (1.46%)
  
  
  ********************************
  Highest Flow Instability Indexes
  ********************************
  Link C11 (5)
  Link C23 (5)
  Link C12 (5)
  Link C13 (5)
  Link C2 (4)
  
  
  *************************
  Routing Time Step Summary
  *************************
  Minimum Time Step           :     0.00 sec
  Average Time Step           :    27.97 sec
  Maximum Time Step           :    30.00 sec
  Percent in Steady State     :     2.66
  Average Iterations per Step :     2.09
  Percent Not Converging      :     0.79
  
  
  ***************************
  Subcatchment Runoff Summary
  ***************************
  
  ------------------------------------------------------------------------------------------------------------------------------
                            Total      Total      Total      Total     Imperv       Perv      Total       Total     Peak  Runoff
                           Precip      Runon       Evap      Infil     Runoff     Runoff     Runoff      Runoff   Runoff   Coeff
  Subcatchment                 mm         mm         mm         mm         mm         mm         mm    10^6 ltr      CMS
  ------------------------------------------------------------------------------------------------------------------------------
  SC01                      10.07       0.00       0.00       0.00      10.00       0.00      10.00        3.30     0.47   0.993
  SC010                     10.07       0.00       0.00       0.00       9.97       0.00       9.97        1.17     0.13   0.990
  SC02                      13.70       0.00       0.00       0.00      13.64       0.00      13.64        3.10     0.83   0.996
  SC03                       8.21       0.00       0.00       0.00       8.15       0.00       8.15        1.47     0.13   0.993
  SC04                      13.70       0.00       0.00       0.00      13.52       0.00      13.52        0.93     0.18   0.987
  SC05                      10.07       0.00       0.00       0.00       9.99       0.00       9.99        1.56     0.21   0.992
  SC06                       5.01       0.00       0.00       0.00       4.80       0.00       4.80        1.56     0.08   0.957
  SC07                      13.70       0.00       0.00       0.00      13.53       0.00      13.53        0.64     0.12   0.987
  SC08                       8.21       0.00       0.00       0.00       8.10       0.00       8.10        2.27     0.16   0.987
  SC09                       5.01       0.00       0.00       0.00       4.87       0.00       4.87        0.34     0.02   0.973
  
  
  ******************
  Node Depth Summary
  ******************
  
  ---------------------------------------------------------------------------------
                                 Average  Maximum  Maximum  Time of Max    Reported
                                   Depth    Depth      HGL   Occurrence   Max Depth
  Node                 Type       Meters   Meters   Meters  days hr:min      Meters
  ---------------------------------------------------------------------------------
  CSO10                JUNCTION     0.11     0.32    30.32     0  04:36        0.30
  CSO7                 JUNCTION     0.12     1.20    35.20     0  04:23        1.20
  CSO8                 JUNCTION     0.10     0.23    32.23     0  04:25        0.23
  CSO9                 JUNCTION     0.07     0.13    40.13     0  11:55        0.13
  J1                   JUNCTION     0.06     0.15    34.15     0  04:36        0.15
  J10                  JUNCTION     0.08     0.16    29.16     0  04:27        0.16
  J11                  JUNCTION     0.08     0.17    31.17     0  11:36        0.17
  J12                  JUNCTION     0.12     0.23    26.23     0  14:24        0.23
  J13                  JUNCTION     0.06     0.24    29.24     0  04:30        0.24
  J14                  JUNCTION     0.11     0.18    20.18     0  15:12        0.18
  J15                  JUNCTION     0.16     0.26    15.26     0  04:39        0.26
  J16                  JUNCTION     0.06     0.17    30.17     0  04:35        0.16
  J17                  JUNCTION     0.06     0.14    20.14     0  07:30        0.14
  J18                  JUNCTION     0.05     0.13    29.13     0  04:37        0.13
  J19                  JUNCTION     0.14     0.17     8.17     0  12:11        0.17
  J2                   JUNCTION     0.06     0.07    25.07     0  14:39        0.07
  J3                   JUNCTION     0.10     0.15    18.15     0  14:55        0.15
  J4                   JUNCTION     0.12     0.91    33.91     0  04:26        0.73
  J5                   JUNCTION     0.06     0.17    32.17     0  04:31        0.17
  J6                   JUNCTION     0.06     0.11    25.11     0  14:16        0.11
  J7                   JUNCTION     0.06     0.10    39.10     0  12:01        0.10
  J8                   JUNCTION     0.08     0.12    36.12     0  12:01        0.12
  J9                   JUNCTION     0.08     0.14    29.14     0  13:26        0.14
  Out_to_WWTP          OUTFALL      0.14     0.17     6.17     0  17:12        0.17
  T1                   STORAGE      3.08     5.00    15.00     0  12:10        5.00
  T2                   STORAGE      3.06     5.00    26.00     0  13:58        5.00
  T3                   STORAGE      1.88     4.24    26.24     0  14:20        4.24
  T4                   STORAGE      2.38     3.92    30.92     0  17:40        3.92
  T5                   STORAGE      2.22     4.20    31.20     0  14:37        4.20
  T6                   STORAGE      1.08     2.56    33.56     0  13:40        2.56
  
  
  *******************
  Node Inflow Summary
  *******************
  
  -------------------------------------------------------------------------------------------------
                                  Maximum  Maximum                  Lateral       Total        Flow
                                  Lateral    Total  Time of Max      Inflow      Inflow     Balance
                                   Inflow   Inflow   Occurrence      Volume      Volume       Error
  Node                 Type           CMS      CMS  days hr:min    10^6 ltr    10^6 ltr     Percent
  -------------------------------------------------------------------------------------------------
  CSO10                JUNCTION     0.135    0.135     0  04:35        1.36        1.36      -0.007
  CSO7                 JUNCTION     0.125    0.125     0  04:30        1.04        1.04       0.012
  CSO8                 JUNCTION     0.155    0.155     0  04:25        2.54        2.54      -0.010
  CSO9                 JUNCTION     0.025    0.025     0  11:55       0.603       0.603       0.085
  J1                   JUNCTION     0.212    0.212     0  04:35        2.32        2.32       0.014
  J10                  JUNCTION     0.133    0.276     0  04:25        1.99        4.53       0.125
  J11                  JUNCTION     0.000    0.155     0  04:25           0        2.54       0.254
  J12                  JUNCTION     0.000    0.349     0  11:37           0        7.53       0.237
  J13                  JUNCTION     0.833    0.833     0  04:30        3.74        3.74      -0.280
  J14                  JUNCTION     0.000    0.174     0  14:20           0        4.73      -0.358
  J15                  JUNCTION     0.000    0.691     0  04:35           0        14.7       0.859
  J16                  JUNCTION     0.472    0.472     0  04:35        4.05        4.06      -0.047
  J17                  JUNCTION     0.000    0.120     0  07:25           0        1.62       0.654
  J18                  JUNCTION     0.000    0.133     0  04:36           0        1.36       0.040
  J19                  JUNCTION     0.000    0.271     0  12:10           0        12.7       0.099
  J2                   JUNCTION     0.000    0.036     0  14:37           0        1.59       0.312
  J3                   JUNCTION     0.000    0.236     0  15:13           0        7.75       0.604
  J4                   JUNCTION     0.000    0.085     0  04:23           0           1       0.434
  J5                   JUNCTION     0.180    0.252     0  04:30        1.11         2.1       0.062
  J6                   JUNCTION     0.000    0.069     0  14:10           0        1.42      -0.060
  J7                   JUNCTION     0.000    0.025     0  11:56           0       0.602       0.678
  J8                   JUNCTION     0.112    0.137     0  12:00        2.84        3.44       0.245
  J9                   JUNCTION     0.000    0.125     0  13:40           0        3.02       0.417
  Out_to_WWTP          OUTFALL      0.000    0.271     0  12:11           0        12.7       0.000
  T1                   STORAGE      0.000    0.606     0  04:40           0        14.6       6.030
  T2                   STORAGE      0.000    0.830     0  04:30           0        3.75      33.189
  T3                   STORAGE      0.000    0.345     0  11:40           0        7.51      15.433
  T4                   STORAGE      0.000    0.250     0  04:31           0         2.1      16.163
  T5                   STORAGE      0.000    0.208     0  04:36           0        2.32      18.833
  T6                   STORAGE      0.000    0.137     0  12:01           0        3.43       7.698
  
  
  **********************
  Node Surcharge Summary
  **********************
  
  Surcharging occurs when water rises above the top of the highest conduit.
  ---------------------------------------------------------------------
                                               Max. Height   Min. Depth
                                   Hours       Above Crown    Below Rim
  Node                 Type      Surcharged         Meters       Meters
  ---------------------------------------------------------------------
  CSO7                 JUNCTION        0.47          0.945        0.000
  J4                   JUNCTION        0.45          0.606        1.094
  
  
  *********************
  Node Flooding Summary
  *********************
  
  Flooding refers to all water that overflows a node, whether it ponds or not.
  --------------------------------------------------------------------------
                                                             Total   Maximum
                                 Maximum   Time of Max       Flood    Ponded
                        Hours       Rate    Occurrence      Volume     Depth
  Node                 Flooded       CMS   days hr:min    10^6 ltr    Meters
  --------------------------------------------------------------------------
  CSO7                    0.35     0.053      0  04:30       0.038     0.000
  T1                      1.78     0.145      0  12:45       0.345     0.000
  T2                      4.12     0.044      0  14:07       0.200     0.000
  
  
  **********************
  Storage Volume Summary
  **********************
  
  --------------------------------------------------------------------------------------------------
                         Average     Avg  Evap Exfil       Maximum     Max    Time of Max    Maximum
                          Volume    Pcnt  Pcnt  Pcnt        Volume    Pcnt     Occurrence    Outflow
  Storage Unit           1000 m3    Full  Loss  Loss       1000 m3    Full    days hr:min        CMS
  --------------------------------------------------------------------------------------------------
  T1                       0.432      62     0     0         0.700     100       0  12:10      0.271
  T2                       0.612      61     0     0         1.000     100       0  13:58      0.120
  T3                       0.979      38     0     0         2.203      85       0  14:20      0.188
  T4                       0.238      48     0     0         0.392      78       0  17:40      0.069
  T5                       0.222      44     0     0         0.420      84       0  14:37      0.036
  T6                       0.129      22     0     0         0.308      51       0  13:40      0.125
  
  
  ***********************
  Outfall Loading Summary
  ***********************
  
  -----------------------------------------------------------
                         Flow       Avg       Max       Total
                         Freq      Flow      Flow      Volume
  Outfall Node           Pcnt       CMS       CMS    10^6 ltr
  -----------------------------------------------------------
  Out_to_WWTP           99.53     0.197     0.271      12.727
  -----------------------------------------------------------
  System                99.53     0.197     0.271      12.727
  
  
  ********************
  Link Flow Summary
  ********************
  
  -----------------------------------------------------------------------------
                                 Maximum  Time of Max   Maximum    Max/    Max/
                                  |Flow|   Occurrence   |Veloc|    Full    Full
  Link                 Type          CMS  days hr:min     m/sec    Flow   Depth
  -----------------------------------------------------------------------------
  C1                   CONDUIT     0.036     0  14:39      1.04    0.01    0.11
  C10                  CONDUIT     0.137     0  12:01      1.62    0.01    0.54
  C11                  CONDUIT     0.233     0  14:55      1.88    0.01    0.09
  C12                  CONDUIT     0.122     0  13:26      1.26    0.01    0.09
  C13                  CONDUIT     0.345     0  11:40      1.42    0.02    0.56
  C14                  CONDUIT     0.271     0  12:11      2.08    0.02    0.09
  C15                  CONDUIT     0.155     0  04:25      2.27    0.49    0.44
  C16                  CONDUIT     0.149     0  04:27      1.24    0.01    0.08
  C17                  CONDUIT     0.271     0  04:27      2.14    0.01    0.09
  C18                  CONDUIT     0.830     0  04:30      3.92    0.03    0.55
  C19                  CONDUIT     0.118     0  07:30      1.80    0.04    0.18
  C2                   CONDUIT     0.069     0  14:16      1.84    0.08    0.21
  C20                  CONDUIT     0.464     0  04:36      3.28    0.01    0.11
  C21                  CONDUIT     0.133     0  04:36      1.73    0.76    0.50
  C22                  CONDUIT     0.129     0  04:38      1.36    0.06    0.25
  C23                  CONDUIT     0.606     0  04:40      1.22    0.07    0.59
  C3                   CONDUIT     0.176     0  14:23      2.16    0.07    0.17
  C4                   CONDUIT     0.208     0  04:36      3.48    0.05    0.57
  C5                   CONDUIT     0.085     0  04:23      1.67    1.45    1.00
  C6                   CONDUIT     0.072     0  04:30      1.27    1.14    0.78
  C7                   CONDUIT     0.250     0  04:31      1.41    0.06    0.58
  C8                   CONDUIT     0.025     0  11:56      1.00    0.32    0.35
  C9                   CONDUIT     0.025     0  12:01      0.76    0.08    0.22
  V1                   ORIFICE     0.271     0  12:10                      1.00
  V2                   ORIFICE     0.120     0  07:25                      1.00
  V3                   ORIFICE     0.174     0  14:20                      1.00
  V4                   ORIFICE     0.069     0  14:10                      1.00
  V5                   ORIFICE     0.036     0  14:37                      1.00
  V6                   ORIFICE     0.125     0  13:40                      1.00
  
  
  ***************************
  Flow Classification Summary
  ***************************
  
  -------------------------------------------------------------------------------------
                      Adjusted    ---------- Fraction of Time in Flow Class ---------- 
                       /Actual         Up    Down  Sub   Sup   Up    Down  Norm  Inlet 
  Conduit               Length    Dry  Dry   Dry   Crit  Crit  Crit  Crit  Ltd   Ctrl  
  -------------------------------------------------------------------------------------
  C1                      1.00   0.00  0.00  0.00  0.46  0.54  0.00  0.00  0.97  0.00
  C10                     1.00   0.00  0.00  0.00  0.98  0.02  0.00  0.00  0.99  0.00
  C11                     1.00   0.00  0.00  0.00  0.22  0.78  0.00  0.00  1.00  0.00
  C12                     1.00   0.00  0.00  0.00  0.66  0.34  0.00  0.00  0.89  0.00
  C13                     1.00   0.00  0.00  0.00  0.93  0.07  0.00  0.00  0.87  0.00
  C14                     1.00   0.00  0.00  0.00  0.00  0.99  0.00  0.00  0.58  0.00
  C15                     1.00   0.04  0.00  0.00  0.00  0.96  0.00  0.00  0.00  0.00
  C16                     1.00   0.00  0.04  0.00  0.45  0.51  0.00  0.00  0.33  0.00
  C17                     1.00   0.00  0.00  0.00  0.29  0.71  0.00  0.00  0.99  0.00
  C18                     1.00   0.00  0.00  0.00  0.90  0.10  0.00  0.00  0.99  0.00
  C19                     1.00   0.00  0.00  0.00  0.90  0.10  0.00  0.00  1.00  0.00
  C2                      1.00   0.00  0.00  0.00  0.47  0.53  0.00  0.00  0.99  0.00
  C20                     1.00   0.00  0.00  0.00  0.52  0.48  0.00  0.00  0.99  0.00
  C21                     1.00   0.00  0.00  0.00  0.00  1.00  0.00  0.00  0.00  0.00
  C22                     1.00   0.00  0.00  0.00  0.95  0.05  0.00  0.00  1.00  0.00
  C23                     1.00   0.00  0.00  0.00  0.95  0.05  0.00  0.00  0.98  0.00
  C3                      1.00   0.00  0.00  0.00  0.03  0.96  0.00  0.00  0.50  0.00
  C4                      1.00   0.00  0.00  0.00  0.98  0.02  0.00  0.00  0.99  0.00
  C5                      1.00   0.00  0.00  0.00  0.89  0.11  0.00  0.00  0.95  0.00
  C6                      1.00   0.00  0.00  0.00  0.05  0.95  0.00  0.00  0.00  0.00
  C7                      1.00   0.00  0.00  0.00  0.98  0.02  0.00  0.00  0.99  0.00
  C8                      1.00   0.00  0.00  0.00  0.07  0.93  0.00  0.00  0.00  0.00
  C9                      1.00   0.00  0.00  0.00  1.00  0.00  0.00  0.00  1.00  0.00
  
  
  *************************
  Conduit Surcharge Summary
  *************************
  
  ----------------------------------------------------------------------------
                                                           Hours        Hours 
                         --------- Hours Full --------   Above Full   Capacity
  Conduit                Both Ends  Upstream  Dnstream   Normal Flow   Limited
  ----------------------------------------------------------------------------
  C10                         0.01      0.01      6.33      0.01         0.01
  C13                         0.01      0.01      6.58      0.01         0.01
  C18                         0.01      0.01     13.55      0.01         0.01
  C23                         0.01      0.01     13.45      0.01         0.01
  C4                          0.01      0.01     13.50      0.01         0.01
  C5                          0.43      0.47      0.55      0.48         0.42
  C6                          0.01      0.45      0.01      0.37         0.01
  C7                          0.01      0.01     13.64      0.01         0.01
  

  Analysis begun on:  Sun Jul 17 20:45:50 2022
  Analysis ended on:  Sun Jul 17 20:45:52 2022
  Total elapsed time: 00:00:02