
  EPA STORM WATER MANAGEMENT MODEL - VERSION 5.1 (Build 5.3.0.dev0)
  --------------------------------------------------------------

  
  *********************************************************
  NOTE: The summary statistics displayed in this report are
  based on results found at every computational time step,  
  not just on results from each reporting time step.
  *********************************************************
  
  ****************
  Analysis Options
  ****************
  Flow Units ............... CMS
  Process Models:
    Rainfall/Runoff ........ YES
    RDII ................... NO
    Snowmelt ............... NO
    Groundwater ............ NO
    Flow Routing ........... YES
    Ponding Allowed ........ NO
    Water Quality .......... NO
  Infiltration Method ...... HORTON
  Flow Routing Method ...... DYNWAVE
  Surcharge Method ......... EXTRAN
  Starting Date ............ 02/08/2007 07:55:00
  Ending Date .............. 02/08/2007 21:05:00
  Antecedent Dry Days ...... 0.0
  Report Time Step ......... 00:05:00
  Wet Time Step ............ 00:05:00
  Dry Time Step ............ 01:00:00
  Routing Time Step ........ 30.00 sec
  Variable Time Step ....... YES
  Maximum Trials ........... 8
  Number of Threads ........ 1
  Head Tolerance ........... 0.001500 m
  
  
  **************************        Volume         Depth
  Runoff Quantity Continuity     hectare-m            mm
  **************************     ---------       -------
  Total Precipitation ......         2.225        12.348
  Evaporation Loss .........         0.000         0.000
  Infiltration Loss ........         0.000         0.000
  Surface Runoff ...........         2.193        12.171
  Final Storage ............         0.034         0.187
  Continuity Error (%) .....        -0.085
  
  
  **************************        Volume        Volume
  Flow Routing Continuity        hectare-m      10^6 ltr
  **************************     ---------     ---------
  Dry Weather Inflow .......         0.579         5.787
  Wet Weather Inflow .......         2.193        21.934
  Groundwater Inflow .......         0.000         0.000
  RDII Inflow ..............         0.000         0.000
  External Inflow ..........         0.000         0.000
  External Outflow .........         1.178        11.781
  Flooding Loss ............         0.559         5.594
  Evaporation Loss .........         0.000         0.000
  Exfiltration Loss ........         0.000         0.000
  Initial Stored Volume ....         0.000         0.000
  Final Stored Volume ......         0.775         7.746
  Continuity Error (%) .....         9.382
  
  
  *************************
  Highest Continuity Errors
  *************************
  Node T2 (23.47%)
  Node T4 (20.95%)
  Node T5 (20.86%)
  Node T3 (11.48%)
  Node T6 (10.83%)
  
  
  ***************************
  Time-Step Critical Elements
  ***************************
  Link C15 (74.57%)
  
  
  ********************************
  Highest Flow Instability Indexes
  ********************************
  Link C13 (6)
  Link C3 (3)
  Link V3 (3)
  Link C23 (3)
  Link C15 (2)
  
  
  *************************
  Routing Time Step Summary
  *************************
  Minimum Time Step           :     0.04 sec
  Average Time Step           :    25.84 sec
  Maximum Time Step           :    30.00 sec
  Percent in Steady State     :    21.11
  Average Iterations per Step :     2.02
  Percent Not Converging      :     0.00
  
  
  ***************************
  Subcatchment Runoff Summary
  ***************************
  
  ------------------------------------------------------------------------------------------------------------------------------
                            Total      Total      Total      Total     Imperv       Perv      Total       Total     Peak  Runoff
                           Precip      Runon       Evap      Infil     Runoff     Runoff     Runoff      Runoff   Runoff   Coeff
  Subcatchment                 mm         mm         mm         mm         mm         mm         mm    10^6 ltr      CMS
  ------------------------------------------------------------------------------------------------------------------------------
  SC01                      11.23       0.00       0.00       0.00      11.13       0.00      11.13        3.67     0.42   0.991
  SC010                     11.23       0.00       0.00       0.00      11.09       0.00      11.09        1.30     0.14   0.987
  SC02                      13.92       0.00       0.00       0.00      13.80       0.00      13.80        3.14     0.28   0.991
  SC03                      12.07       0.00       0.00       0.00      11.99       0.00      11.99        2.16     0.14   0.993
  SC04                      13.92       0.00       0.00       0.00      13.64       0.00      13.64        0.94     0.07   0.980
  SC05                      11.23       0.00       0.00       0.00      11.12       0.00      11.12        1.73     0.19   0.990
  SC06                      13.01       0.00       0.00       0.00      12.66       0.00      12.66        4.12     0.28   0.973
  SC07                      13.92       0.00       0.00       0.00      13.64       0.00      13.64        0.65     0.05   0.980
  SC08                      12.07       0.00       0.00       0.00      11.90       0.00      11.90        3.33     0.16   0.986
  SC09                      13.01       0.00       0.00       0.00      12.81       0.00      12.81        0.88     0.07   0.984
  
  
  ******************
  Node Depth Summary
  ******************
  
  ---------------------------------------------------------------------------------
                                 Average  Maximum  Maximum  Time of Max    Reported
                                   Depth    Depth      HGL   Occurrence   Max Depth
  Node                 Type       Meters   Meters   Meters  days hr:min      Meters
  ---------------------------------------------------------------------------------
  CSO10                JUNCTION     0.14     0.33    30.33     0  01:00        0.33
  CSO7                 JUNCTION     0.11     0.20    34.20     0  01:11        0.20
  CSO8                 JUNCTION     0.16     0.25    32.25     0  00:55        0.25
  CSO9                 JUNCTION     0.13     0.27    40.27     0  01:06        0.27
  J1                   JUNCTION     0.08     0.15    34.15     0  00:56        0.15
  J10                  JUNCTION     0.12     0.17    29.17     0  00:49        0.17
  J11                  JUNCTION     0.12     0.18    31.18     0  00:57        0.18
  J12                  JUNCTION     0.58     1.02    27.02     0  07:45        1.01
  J13                  JUNCTION     0.08     0.15    29.15     0  01:01        0.15
  J14                  JUNCTION     0.14     0.19    20.19     0  07:02        0.19
  J15                  JUNCTION     0.20     0.28    15.28     0  01:02        0.27
  J16                  JUNCTION     0.08     0.16    30.16     0  00:55        0.16
  J17                  JUNCTION     0.08     0.15    20.15     0  08:20        0.15
  J18                  JUNCTION     0.06     0.14    29.14     0  01:01        0.14
  J19                  JUNCTION     0.16     0.17     8.17     0  01:42        0.17
  J2                   JUNCTION     0.07     0.08    25.08     0  10:39        0.08
  J3                   JUNCTION     0.13     0.17    18.17     0  08:13        0.17
  J4                   JUNCTION     0.13     0.24    33.24     0  01:16        0.24
  J5                   JUNCTION     0.07     0.12    32.12     0  01:15        0.12
  J6                   JUNCTION     0.07     0.11    25.11     0  05:52        0.11
  J7                   JUNCTION     0.10     0.17    39.17     0  01:08        0.17
  J8                   JUNCTION     0.13     0.20    36.20     0  01:14        0.20
  J9                   JUNCTION     0.13     0.16    29.16     0  02:53        0.16
  Out_to_WWTP          OUTFALL      0.16     0.17     6.17     0  04:19        0.17
  T1                   STORAGE      4.47     5.00    15.00     0  01:41        5.00
  T2                   STORAGE      3.49     4.66    25.66     0  12:36        4.66
  T3                   STORAGE      3.63     5.00    27.00     0  07:18        5.00
  T4                   STORAGE      2.86     3.66    30.66     0  11:30        3.66
  T5                   STORAGE      4.02     4.89    31.89     0  10:35        4.89
  T6                   STORAGE      3.84     4.88    35.88     0  13:10        4.88
  
  
  *******************
  Node Inflow Summary
  *******************
  
  -------------------------------------------------------------------------------------------------
                                  Maximum  Maximum                  Lateral       Total        Flow
                                  Lateral    Total  Time of Max      Inflow      Inflow     Balance
                                   Inflow   Inflow   Occurrence      Volume      Volume       Error
  Node                 Type           CMS      CMS  days hr:min    10^6 ltr    10^6 ltr     Percent
  -------------------------------------------------------------------------------------------------
  CSO10                JUNCTION     0.142    0.142     0  01:00        1.51        1.51      -0.058
  CSO7                 JUNCTION     0.057    0.057     0  01:10        1.08        1.07      -0.001
  CSO8                 JUNCTION     0.174    0.174     0  00:55        3.71        3.71      -0.146
  CSO9                 JUNCTION     0.076    0.076     0  01:05        1.17        1.17      -0.195
  J1                   JUNCTION     0.211    0.211     0  00:55        2.56        2.57      -0.152
  J10                  JUNCTION     0.153    0.313     0  00:47        2.73        6.45      -0.267
  J11                  JUNCTION     0.000    0.174     0  00:55           0        3.71      -0.256
  J12                  JUNCTION     0.000    0.452     0  06:38           0        11.9       4.494
  J13                  JUNCTION     0.296    0.296     0  01:00        3.83        3.82      -0.387
  J14                  JUNCTION     0.000    0.190     0  07:18           0        5.48       0.145
  J15                  JUNCTION     0.000    0.681     0  01:00           0        16.5       0.089
  J16                  JUNCTION     0.438    0.438     0  00:55        4.49         4.5      -0.151
  J17                  JUNCTION     0.000    0.133     0  07:40           0           2       0.367
  J18                  JUNCTION     0.000    0.142     0  01:00           0        1.51      -0.088
  J19                  JUNCTION     0.000    0.271     0  01:41           0        11.8       0.100
  J2                   JUNCTION     0.000    0.039     0  10:35           0        1.62       0.336
  J3                   JUNCTION     0.000    0.295     0  08:23           0        8.49       0.155
  J4                   JUNCTION     0.000    0.057     0  01:11           0        1.07       0.224
  J5                   JUNCTION     0.074    0.130     0  01:14        1.13         2.2      -0.029
  J6                   JUNCTION     0.000    0.068     0  05:45           0         1.4      -0.696
  J7                   JUNCTION     0.000    0.075     0  01:06           0        1.18      -0.320
  J8                   JUNCTION     0.305    0.378     0  01:12        5.51         6.7      -0.322
  J9                   JUNCTION     0.000    0.165     0  02:45           0        5.41      -0.419
  Out_to_WWTP          OUTFALL      0.000    0.271     0  01:43           0        11.8       0.000
  T1                   STORAGE      0.000    0.664     0  01:02           0        16.5       4.225
  T2                   STORAGE      0.000    0.296     0  01:01           0        3.83      30.665
  T3                   STORAGE      0.000    0.561     0  06:34           0        11.4      12.967
  T4                   STORAGE      0.000    0.130     0  01:15           0         2.2      26.499
  T5                   STORAGE      0.000    0.211     0  00:56           0        2.57      26.361
  T6                   STORAGE      0.000    0.378     0  01:14           0        6.72      12.149
  
  
  **********************
  Node Surcharge Summary
  **********************
  
  No nodes were surcharged.
  
  
  *********************
  Node Flooding Summary
  *********************
  
  Flooding refers to all water that overflows a node, whether it ponds or not.
  --------------------------------------------------------------------------
                                                             Total   Maximum
                                 Maximum   Time of Max       Flood    Ponded
                        Hours       Rate    Occurrence      Volume     Depth
  Node                 Flooded       CMS   days hr:min    10^6 ltr    Meters
  --------------------------------------------------------------------------
  T1                      7.45     0.273      0  08:50       3.457     0.000
  T3                      3.57     0.374      0  08:16       2.136     0.000
  
  
  **********************
  Storage Volume Summary
  **********************
  
  --------------------------------------------------------------------------------------------------
                         Average     Avg  Evap Exfil       Maximum     Max    Time of Max    Maximum
                          Volume    Pcnt  Pcnt  Pcnt        Volume    Pcnt     Occurrence    Outflow
  Storage Unit           1000 m3    Full  Loss  Loss       1000 m3    Full    days hr:min        CMS
  --------------------------------------------------------------------------------------------------
  T1                       0.625      89     0     0         0.700     100       0  01:41      0.271
  T2                       0.699      70     0     0         0.932      93       0  12:36      0.133
  T3                       1.889      73     0     0         2.600     100       0  07:18      0.253
  T4                       0.286      57     0     0         0.366      73       0  11:30      0.068
  T5                       0.402      80     0     0         0.489      98       0  10:35      0.039
  T6                       0.461      77     0     0         0.586      98       0  13:10      0.165
  
  
  ***********************
  Outfall Loading Summary
  ***********************
  
  -----------------------------------------------------------
                         Flow       Avg       Max       Total
                         Freq      Flow      Flow      Volume
  Outfall Node           Pcnt       CMS       CMS    10^6 ltr
  -----------------------------------------------------------
  Out_to_WWTP           99.41     0.250     0.271      11.781
  -----------------------------------------------------------
  System                99.41     0.250     0.271      11.781
  
  
  ********************
  Link Flow Summary
  ********************
  
  -----------------------------------------------------------------------------
                                 Maximum  Time of Max   Maximum    Max/    Max/
                                  |Flow|   Occurrence   |Veloc|    Full    Full
  Link                 Type          CMS  days hr:min     m/sec    Flow   Depth
  -----------------------------------------------------------------------------
  C1                   CONDUIT     0.039     0  10:40      1.07    0.01    0.12
  C10                  CONDUIT     0.378     0  01:14      1.66    0.04    0.57
  C11                  CONDUIT     0.291     0  08:15      1.93    0.01    0.10
  C12                  CONDUIT     0.165     0  02:56      1.51    0.01    0.29
  C13                  CONDUIT     0.561     0  06:34      1.96    0.03    0.75
  C14                  CONDUIT     0.271     0  01:43      2.08    0.02    0.09
  C15                  CONDUIT     0.174     0  00:55      2.32    0.55    0.47
  C16                  CONDUIT     0.173     0  00:57      1.28    0.02    0.09
  C17                  CONDUIT     0.312     0  00:49      2.15    0.02    0.29
  C18                  CONDUIT     0.296     0  01:01      3.36    0.01    0.53
  C19                  CONDUIT     0.132     0  08:21      1.31    0.05    0.20
  C2                   CONDUIT     0.067     0  05:52      1.72    0.08    0.23
  C20                  CONDUIT     0.438     0  00:56      2.49    0.01    0.11
  C21                  CONDUIT     0.142     0  01:00      1.73    0.81    0.53
  C22                  CONDUIT     0.141     0  01:01      1.40    0.06    0.26
  C23                  CONDUIT     0.664     0  01:02      1.54    0.07    0.59
  C3                   CONDUIT     0.192     0  08:23      2.16    0.07    0.18
  C4                   CONDUIT     0.211     0  00:56      3.06    0.05    0.58
  C5                   CONDUIT     0.057     0  01:11      1.23    0.98    0.88
  C6                   CONDUIT     0.057     0  01:16      1.26    0.90    0.61
  C7                   CONDUIT     0.130     0  01:15      1.44    0.03    0.56
  C8                   CONDUIT     0.075     0  01:06      1.31    0.95    0.69
  C9                   CONDUIT     0.075     0  01:08      1.12    0.26    0.37
  V1                   ORIFICE     0.271     0  01:41                      1.00
  V2                   ORIFICE     0.133     0  07:40                      1.00
  V3                   ORIFICE     0.190     0  07:18                      1.00
  V4                   ORIFICE     0.068     0  05:45                      1.00
  V5                   ORIFICE     0.039     0  10:35                      1.00
  V6                   ORIFICE     0.165     0  02:45                      1.00
  
  
  ***************************
  Flow Classification Summary
  ***************************
  
  -------------------------------------------------------------------------------------
                      Adjusted    ---------- Fraction of Time in Flow Class ---------- 
                       /Actual         Up    Down  Sub   Sup   Up    Down  Norm  Inlet 
  Conduit               Length    Dry  Dry   Dry   Crit  Crit  Crit  Crit  Ltd   Ctrl  
  -------------------------------------------------------------------------------------
  C1                      1.00   0.00  0.00  0.00  0.54  0.46  0.00  0.00  0.97  0.00
  C10                     1.00   0.00  0.00  0.00  0.96  0.04  0.00  0.00  0.99  0.00
  C11                     1.00   0.00  0.00  0.00  0.17  0.83  0.00  0.00  1.00  0.00
  C12                     1.00   0.00  0.00  0.00  0.75  0.25  0.00  0.00  0.97  0.00
  C13                     1.00   0.00  0.00  0.00  0.94  0.06  0.00  0.00  0.37  0.00
  C14                     1.00   0.00  0.00  0.00  0.00  0.99  0.00  0.00  0.23  0.00
  C15                     1.00   0.00  0.00  0.00  0.00  1.00  0.00  0.00  0.00  0.00
  C16                     1.00   0.00  0.00  0.00  0.14  0.86  0.00  0.00  0.16  0.00
  C17                     1.00   0.00  0.00  0.00  0.59  0.41  0.00  0.00  0.98  0.00
  C18                     1.00   0.00  0.00  0.00  0.95  0.05  0.00  0.00  0.98  0.00
  C19                     1.00   0.00  0.00  0.00  0.82  0.18  0.00  0.00  1.00  0.00
  C2                      1.00   0.00  0.00  0.00  0.50  0.50  0.00  0.00  0.98  0.00
  C20                     1.00   0.00  0.00  0.00  0.68  0.32  0.00  0.00  0.99  0.00
  C21                     1.00   0.00  0.00  0.00  0.00  1.00  0.00  0.00  0.00  0.00
  C22                     1.00   0.00  0.00  0.00  0.90  0.10  0.00  0.00  1.00  0.00
  C23                     1.00   0.00  0.00  0.00  0.95  0.05  0.00  0.00  0.97  0.00
  C3                      1.00   0.00  0.00  0.00  0.02  0.97  0.00  0.00  0.37  0.00
  C4                      1.00   0.00  0.00  0.00  0.97  0.03  0.00  0.00  0.99  0.00
  C5                      1.00   0.00  0.00  0.00  0.94  0.06  0.00  0.00  0.99  0.00
  C6                      1.00   0.00  0.00  0.00  0.01  0.99  0.00  0.00  0.00  0.00
  C7                      1.00   0.00  0.00  0.00  0.96  0.04  0.00  0.00  0.98  0.00
  C8                      1.00   0.00  0.00  0.00  0.05  0.95  0.00  0.00  0.00  0.00
  C9                      1.00   0.00  0.00  0.00  1.00  0.00  0.00  0.00  1.00  0.00
  
  
  *************************
  Conduit Surcharge Summary
  *************************
  
  ----------------------------------------------------------------------------
                                                           Hours        Hours 
                         --------- Hours Full --------   Above Full   Capacity
  Conduit                Both Ends  Upstream  Dnstream   Normal Flow   Limited
  ----------------------------------------------------------------------------
  C10                         0.01      0.01     12.06      0.01         0.01
  C13                         0.01      0.01      9.83      0.01         0.01
  C18                         0.01      0.01     11.48      0.01         0.01
  C23                         0.01      0.01     12.21      0.01         0.01
  C4                          0.01      0.01     12.28      0.01         0.01
  C7                          0.01      0.01     11.94      0.01         0.01
  

  Analysis begun on:  Sun Jul 17 19:37:32 2022
  Analysis ended on:  Sun Jul 17 19:37:34 2022
  Total elapsed time: 00:00:02