
  EPA STORM WATER MANAGEMENT MODEL - VERSION 5.1 (Build 5.3.0.dev0)
  --------------------------------------------------------------

  
  *********************************************************
  NOTE: The summary statistics displayed in this report are
  based on results found at every computational time step,  
  not just on results from each reporting time step.
  *********************************************************
  
  ****************
  Analysis Options
  ****************
  Flow Units ............... CMS
  Process Models:
    Rainfall/Runoff ........ YES
    RDII ................... NO
    Snowmelt ............... NO
    Groundwater ............ NO
    Flow Routing ........... YES
    Ponding Allowed ........ NO
    Water Quality .......... NO
  Infiltration Method ...... HORTON
  Flow Routing Method ...... DYNWAVE
  Surcharge Method ......... EXTRAN
  Starting Date ............ 08/24/2009 19:50:00
  Ending Date .............. 08/24/2009 23:30:00
  Antecedent Dry Days ...... 0.0
  Report Time Step ......... 00:05:00
  Wet Time Step ............ 00:05:00
  Dry Time Step ............ 01:00:00
  Routing Time Step ........ 30.00 sec
  Variable Time Step ....... YES
  Maximum Trials ........... 8
  Number of Threads ........ 1
  Head Tolerance ........... 0.001500 m
  
  
  **************************        Volume         Depth
  Runoff Quantity Continuity     hectare-m            mm
  **************************     ---------       -------
  Total Precipitation ......         0.909         5.045
  Evaporation Loss .........         0.000         0.000
  Infiltration Loss ........         0.000         0.000
  Surface Runoff ...........         0.867         4.813
  Final Storage ............         0.045         0.252
  Continuity Error (%) .....        -0.396
  
  
  **************************        Volume        Volume
  Flow Routing Continuity        hectare-m      10^6 ltr
  **************************     ---------     ---------
  Dry Weather Inflow .......         0.069         0.686
  Wet Weather Inflow .......         0.866         8.656
  Groundwater Inflow .......         0.000         0.000
  RDII Inflow ..............         0.000         0.000
  External Inflow ..........         0.000         0.000
  External Outflow .........         0.260         2.599
  Flooding Loss ............         0.013         0.128
  Evaporation Loss .........         0.000         0.000
  Exfiltration Loss ........         0.000         0.000
  Initial Stored Volume ....         0.000         0.000
  Final Stored Volume ......         0.526         5.262
  Continuity Error (%) .....        14.475
  
  
  *************************
  Highest Continuity Errors
  *************************
  Node T2 (40.73%)
  Node T6 (35.30%)
  Node T5 (31.80%)
  Node T4 (30.32%)
  Node T3 (26.72%)
  
  
  ***************************
  Time-Step Critical Elements
  ***************************
  Link C15 (49.91%)
  Link C21 (1.90%)
  Link C5 (1.52%)
  
  
  ********************************
  Highest Flow Instability Indexes
  ********************************
  Link C20 (3)
  Link C5 (2)
  Link C7 (2)
  Link C8 (2)
  Link C4 (2)
  
  
  *************************
  Routing Time Step Summary
  *************************
  Minimum Time Step           :     0.24 sec
  Average Time Step           :    24.97 sec
  Maximum Time Step           :    30.00 sec
  Percent in Steady State     :     1.82
  Average Iterations per Step :     2.52
  Percent Not Converging      :     5.78
  
  
  ***************************
  Subcatchment Runoff Summary
  ***************************
  
  ------------------------------------------------------------------------------------------------------------------------------
                            Total      Total      Total      Total     Imperv       Perv      Total       Total     Peak  Runoff
                           Precip      Runon       Evap      Infil     Runoff     Runoff     Runoff      Runoff   Runoff   Coeff
  Subcatchment                 mm         mm         mm         mm         mm         mm         mm    10^6 ltr      CMS
  ------------------------------------------------------------------------------------------------------------------------------
  SC01                       5.05       0.00       0.00       0.00       4.92       0.00       4.92        1.62     0.40   0.974
  SC010                      5.05       0.00       0.00       0.00       4.85       0.00       4.85        0.57     0.12   0.961
  SC02                       5.99       0.00       0.00       0.00       5.86       0.00       5.86        1.33     0.54   0.979
  SC03                       3.90       0.00       0.00       0.00       3.81       0.00       3.81        0.69     0.19   0.977
  SC04                       5.99       0.00       0.00       0.00       5.61       0.00       5.61        0.39     0.09   0.936
  SC05                       5.05       0.00       0.00       0.00       4.90       0.00       4.90        0.76     0.18   0.971
  SC06                       5.55       0.00       0.00       0.00       5.06       0.00       5.06        1.65     0.31   0.912
  SC07                       5.99       0.00       0.00       0.00       5.61       0.00       5.61        0.27     0.06   0.937
  SC08                       3.90       0.00       0.00       0.00       3.69       0.00       3.69        1.03     0.23   0.945
  SC09                       5.55       0.00       0.00       0.00       5.28       0.00       5.28        0.36     0.09   0.952
  
  
  ******************
  Node Depth Summary
  ******************
  
  ---------------------------------------------------------------------------------
                                 Average  Maximum  Maximum  Time of Max    Reported
                                   Depth    Depth      HGL   Occurrence   Max Depth
  Node                 Type       Meters   Meters   Meters  days hr:min      Meters
  ---------------------------------------------------------------------------------
  CSO10                JUNCTION     0.16     0.30    30.30     0  00:40        0.30
  CSO7                 JUNCTION     0.16     1.20    35.20     0  00:41        0.85
  CSO8                 JUNCTION     0.16     0.30    32.30     0  01:30        0.30
  CSO9                 JUNCTION     0.18     0.83    40.83     0  00:40        0.83
  J1                   JUNCTION     0.08     0.15    34.15     0  00:36        0.15
  J10                  JUNCTION     0.11     0.19    29.19     0  01:30        0.19
  J11                  JUNCTION     0.11     0.21    31.21     0  01:30        0.21
  J12                  JUNCTION     0.15     0.22    26.22     0  01:32        0.22
  J13                  JUNCTION     0.08     0.20    29.20     0  00:35        0.19
  J14                  JUNCTION     0.09     0.12    20.12     0  03:40        0.12
  J15                  JUNCTION     0.18     0.25    15.25     0  00:58        0.25
  J16                  JUNCTION     0.09     0.16    30.16     0  00:36        0.16
  J17                  JUNCTION     0.06     0.07    20.07     0  02:28        0.07
  J18                  JUNCTION     0.07     0.13    29.13     0  00:42        0.13
  J19                  JUNCTION     0.14     0.17     8.17     0  02:02        0.17
  J2                   JUNCTION     0.06     0.07    25.07     0  02:11        0.07
  J3                   JUNCTION     0.09     0.12    18.12     0  02:58        0.12
  J4                   JUNCTION     0.16     0.83    33.83     0  00:41        0.57
  J5                   JUNCTION     0.08     0.14    32.14     0  00:42        0.13
  J6                   JUNCTION     0.05     0.07    25.07     0  02:36        0.07
  J7                   JUNCTION     0.11     0.19    39.19     0  00:44        0.19
  J8                   JUNCTION     0.13     0.21    36.21     0  00:45        0.21
  J9                   JUNCTION     0.09     0.11    29.11     0  02:33        0.11
  Out_to_WWTP          OUTFALL      0.14     0.17     6.17     0  02:03        0.17
  T1                   STORAGE      3.17     4.81    14.81     0  02:02        4.81
  T2                   STORAGE      2.15     3.04    24.04     0  02:25        3.04
  T3                   STORAGE      1.23     2.12    24.12     0  03:40        2.12
  T4                   STORAGE      2.02     3.08    30.08     0  02:35        3.08
  T5                   STORAGE      2.21     3.20    30.20     0  02:09        3.20
  T6                   STORAGE      3.33     5.00    36.00     0  01:52        5.00
  
  
  *******************
  Node Inflow Summary
  *******************
  
  -------------------------------------------------------------------------------------------------
                                  Maximum  Maximum                  Lateral       Total        Flow
                                  Lateral    Total  Time of Max      Inflow      Inflow     Balance
                                   Inflow   Inflow   Occurrence      Volume      Volume       Error
  Node                 Type           CMS      CMS  days hr:min    10^6 ltr    10^6 ltr     Percent
  -------------------------------------------------------------------------------------------------
  CSO10                JUNCTION     0.125    0.125     0  00:40       0.595       0.595       0.037
  CSO7                 JUNCTION     0.071    0.071     0  00:40        0.32        0.32       0.109
  CSO8                 JUNCTION     0.229    0.229     0  01:30        1.03        1.03       0.033
  CSO9                 JUNCTION     0.095    0.095     0  00:40       0.401       0.401       0.016
  J1                   JUNCTION     0.191    0.191     0  00:35       0.868       0.869      -0.381
  J10                  JUNCTION     0.203    0.389     0  01:30       0.757        1.78      -0.012
  J11                  JUNCTION     0.000    0.229     0  01:30           0        1.03       0.470
  J12                  JUNCTION     0.000    0.454     0  01:30           0        2.52       0.610
  J13                  JUNCTION     0.551    0.551     0  00:35        1.42        1.42      -0.839
  J14                  JUNCTION     0.000    0.080     0  03:40           0       0.733       0.756
  J15                  JUNCTION     0.000    0.570     0  00:56           0        3.82       1.632
  J16                  JUNCTION     0.409    0.409     0  00:35        1.72        1.72      -0.180
  J17                  JUNCTION     0.000    0.026     0  02:25           0       0.269       2.144
  J18                  JUNCTION     0.000    0.125     0  00:41           0       0.595      -0.008
  J19                  JUNCTION     0.000    0.265     0  02:02           0        2.61       0.435
  J2                   JUNCTION     0.000    0.031     0  02:10           0       0.324       1.337
  J3                   JUNCTION     0.000    0.132     0  02:55           0        1.26       2.502
  J4                   JUNCTION     0.000    0.071     0  00:40           0        0.32       0.282
  J5                   JUNCTION     0.096    0.164     0  00:41        0.41       0.729      -0.132
  J6                   JUNCTION     0.000    0.022     0  02:35           0        0.22       1.534
  J7                   JUNCTION     0.000    0.095     0  00:40           0       0.401       0.409
  J8                   JUNCTION     0.331    0.423     0  00:45        1.82        2.22      -0.079
  J9                   JUNCTION     0.000    0.075     0  01:52           0       0.756       2.426
  Out_to_WWTP          OUTFALL      0.000    0.265     0  02:03           0         2.6       0.000
  T1                   STORAGE      0.000    0.562     0  00:58           0        3.76      19.986
  T2                   STORAGE      0.000    0.544     0  00:36           0        1.43      68.719
  T3                   STORAGE      0.000    0.451     0  01:32           0        2.51      36.460
  T4                   STORAGE      0.000    0.162     0  00:43           0        0.73      43.517
  T5                   STORAGE      0.000    0.191     0  00:37           0       0.872      46.619
  T6                   STORAGE      0.000    0.421     0  00:45           0        2.22      54.568
  
  
  **********************
  Node Surcharge Summary
  **********************
  
  Surcharging occurs when water rises above the top of the highest conduit.
  ---------------------------------------------------------------------
                                               Max. Height   Min. Depth
                                   Hours       Above Crown    Below Rim
  Node                 Type      Surcharged         Meters       Meters
  ---------------------------------------------------------------------
  CSO7                 JUNCTION        0.29          0.945        0.000
  CSO9                 JUNCTION        0.31          0.513        1.169
  J4                   JUNCTION        0.24          0.528        1.172
  
  
  *********************
  Node Flooding Summary
  *********************
  
  Flooding refers to all water that overflows a node, whether it ponds or not.
  --------------------------------------------------------------------------
                                                             Total   Maximum
                                 Maximum   Time of Max       Flood    Ponded
                        Hours       Rate    Occurrence      Volume     Depth
  Node                 Flooded       CMS   days hr:min    10^6 ltr    Meters
  --------------------------------------------------------------------------
  CSO7                    0.01     0.001      0  00:41       0.000     0.000
  T6                      0.68     0.125      0  01:52       0.128     0.000
  
  
  **********************
  Storage Volume Summary
  **********************
  
  --------------------------------------------------------------------------------------------------
                         Average     Avg  Evap Exfil       Maximum     Max    Time of Max    Maximum
                          Volume    Pcnt  Pcnt  Pcnt        Volume    Pcnt     Occurrence    Outflow
  Storage Unit           1000 m3    Full  Loss  Loss       1000 m3    Full    days hr:min        CMS
  --------------------------------------------------------------------------------------------------
  T1                       0.444      63     0     0         0.673      96       0  02:02      0.265
  T2                       0.429      43     0     0         0.608      61       0  02:25      0.026
  T3                       0.640      25     0     0         1.105      42       0  03:40      0.080
  T4                       0.202      40     0     0         0.308      62       0  02:35      0.022
  T5                       0.221      44     0     0         0.320      64       0  02:09      0.031
  T6                       0.399      67     0     0         0.600     100       0  01:52      0.075
  
  
  ***********************
  Outfall Loading Summary
  ***********************
  
  -----------------------------------------------------------
                         Flow       Avg       Max       Total
                         Freq      Flow      Flow      Volume
  Outfall Node           Pcnt       CMS       CMS    10^6 ltr
  -----------------------------------------------------------
  Out_to_WWTP           97.91     0.200     0.265       2.599
  -----------------------------------------------------------
  System                97.91     0.200     0.265       2.599
  
  
  ********************
  Link Flow Summary
  ********************
  
  -----------------------------------------------------------------------------
                                 Maximum  Time of Max   Maximum    Max/    Max/
                                  |Flow|   Occurrence   |Veloc|    Full    Full
  Link                 Type          CMS  days hr:min     m/sec    Flow   Depth
  -----------------------------------------------------------------------------
  C1                   CONDUIT     0.031     0  02:11      0.99    0.01    0.09
  C10                  CONDUIT     0.421     0  00:45      1.62    0.04    0.57
  C11                  CONDUIT     0.132     0  02:58      1.53    0.01    0.09
  C12                  CONDUIT     0.075     0  02:33      1.13    0.01    0.08
  C13                  CONDUIT     0.451     0  01:32      2.32    0.03    0.53
  C14                  CONDUIT     0.265     0  02:03      2.07    0.01    0.08
  C15                  CONDUIT     0.229     0  01:30      2.49    0.73    0.56
  C16                  CONDUIT     0.227     0  01:31      1.40    0.02    0.10
  C17                  CONDUIT     0.388     0  01:30      2.33    0.02    0.10
  C18                  CONDUIT     0.544     0  00:36      3.92    0.02    0.53
  C19                  CONDUIT     0.026     0  02:28      0.58    0.01    0.16
  C2                   CONDUIT     0.022     0  02:37      0.83    0.03    0.15
  C20                  CONDUIT     0.408     0  00:36      3.28    0.01    0.10
  C21                  CONDUIT     0.125     0  00:41      1.70    0.71    0.49
  C22                  CONDUIT     0.124     0  00:42      1.38    0.06    0.24
  C23                  CONDUIT     0.562     0  00:58      2.03    0.06    0.58
  C3                   CONDUIT     0.080     0  03:40      1.53    0.03    0.12
  C4                   CONDUIT     0.191     0  00:37      3.48    0.05    0.57
  C5                   CONDUIT     0.071     0  00:40      1.42    1.21    1.00
  C6                   CONDUIT     0.070     0  00:42      1.27    1.11    0.73
  C7                   CONDUIT     0.162     0  00:43      1.41    0.04    0.56
  C8                   CONDUIT     0.095     0  00:40      1.40    1.19    0.80
  C9                   CONDUIT     0.092     0  00:44      1.23    0.31    0.40
  V1                   ORIFICE     0.265     0  02:02                      1.00
  V2                   ORIFICE     0.026     0  02:25                      0.24
  V3                   ORIFICE     0.080     0  03:40                      0.65
  V4                   ORIFICE     0.022     0  02:35                      0.35
  V5                   ORIFICE     0.031     0  02:10                      1.00
  V6                   ORIFICE     0.075     0  01:52                      0.43
  
  
  ***************************
  Flow Classification Summary
  ***************************
  
  -------------------------------------------------------------------------------------
                      Adjusted    ---------- Fraction of Time in Flow Class ---------- 
                       /Actual         Up    Down  Sub   Sup   Up    Down  Norm  Inlet 
  Conduit               Length    Dry  Dry   Dry   Crit  Crit  Crit  Crit  Ltd   Ctrl  
  -------------------------------------------------------------------------------------
  C1                      1.00   0.00  0.00  0.00  0.01  0.99  0.00  0.00  0.84  0.00
  C10                     1.00   0.00  0.00  0.00  0.91  0.09  0.00  0.00  0.95  0.00
  C11                     1.00   0.00  0.00  0.00  0.54  0.45  0.00  0.00  1.00  0.00
  C12                     1.00   0.00  0.00  0.00  0.65  0.34  0.00  0.00  0.83  0.00
  C13                     1.00   0.00  0.00  0.00  0.77  0.22  0.00  0.00  0.80  0.00
  C14                     1.00   0.01  0.01  0.00  0.01  0.97  0.00  0.00  0.39  0.00
  C15                     1.00   0.02  0.00  0.00  0.01  0.97  0.00  0.00  0.00  0.00
  C16                     1.00   0.00  0.03  0.00  0.13  0.84  0.00  0.00  0.14  0.00
  C17                     1.00   0.00  0.00  0.00  0.27  0.73  0.00  0.00  0.90  0.00
  C18                     1.00   0.00  0.00  0.00  0.87  0.13  0.00  0.00  0.94  0.00
  C19                     1.00   0.00  0.00  0.00  1.00  0.00  0.00  0.00  1.00  0.00
  C2                      1.00   0.00  0.00  0.00  0.02  0.98  0.00  0.00  0.94  0.00
  C20                     1.00   0.00  0.00  0.00  0.39  0.61  0.00  0.00  0.96  0.00
  C21                     1.00   0.00  0.00  0.00  0.00  1.00  0.00  0.00  0.00  0.00
  C22                     1.00   0.00  0.00  0.00  0.53  0.47  0.00  0.00  1.00  0.00
  C23                     1.00   0.00  0.00  0.00  0.87  0.13  0.00  0.00  0.88  0.00
  C3                      1.00   0.01  0.01  0.00  0.12  0.87  0.00  0.00  0.18  0.00
  C4                      1.00   0.00  0.00  0.00  0.89  0.11  0.00  0.00  0.96  0.00
  C5                      1.00   0.00  0.00  0.00  0.91  0.09  0.00  0.00  0.84  0.00
  C6                      1.00   0.00  0.00  0.00  0.18  0.82  0.00  0.00  0.01  0.00
  C7                      1.00   0.00  0.00  0.00  0.86  0.14  0.00  0.00  0.93  0.00
  C8                      1.00   0.00  0.00  0.00  0.33  0.67  0.00  0.00  0.00  0.00
  C9                      1.00   0.00  0.00  0.00  0.95  0.05  0.00  0.00  1.00  0.00
  
  
  *************************
  Conduit Surcharge Summary
  *************************
  
  ----------------------------------------------------------------------------
                                                           Hours        Hours 
                         --------- Hours Full --------   Above Full   Capacity
  Conduit                Both Ends  Upstream  Dnstream   Normal Flow   Limited
  ----------------------------------------------------------------------------
  C10                         0.01      0.01      2.80      0.01         0.01
  C13                         0.01      0.01      1.19      0.01         0.01
  C18                         0.01      0.01      2.52      0.01         0.01
  C23                         0.01      0.01      2.85      0.01         0.01
  C4                          0.01      0.01      2.92      0.01         0.01
  C5                          0.25      0.30      0.41      0.28         0.20
  C6                          0.01      0.23      0.01      0.11         0.01
  C7                          0.01      0.01      2.80      0.01         0.01
  C8                          0.01      0.31      0.01      0.28         0.01
  

  Analysis begun on:  Sun Jul 17 21:41:23 2022
  Analysis ended on:  Sun Jul 17 21:41:23 2022
  Total elapsed time: < 1 sec