
  EPA STORM WATER MANAGEMENT MODEL - VERSION 5.1 (Build 5.3.0.dev0)
  --------------------------------------------------------------

  
  *********************************************************
  NOTE: The summary statistics displayed in this report are
  based on results found at every computational time step,  
  not just on results from each reporting time step.
  *********************************************************
  
  ****************
  Analysis Options
  ****************
  Flow Units ............... CMS
  Process Models:
    Rainfall/Runoff ........ YES
    RDII ................... NO
    Snowmelt ............... NO
    Groundwater ............ NO
    Flow Routing ........... YES
    Ponding Allowed ........ NO
    Water Quality .......... NO
  Infiltration Method ...... HORTON
  Flow Routing Method ...... DYNWAVE
  Surcharge Method ......... EXTRAN
  Starting Date ............ 09/26/2007 12:20:00
  Ending Date .............. 09/26/2007 15:40:00
  Antecedent Dry Days ...... 0.0
  Report Time Step ......... 00:05:00
  Wet Time Step ............ 00:05:00
  Dry Time Step ............ 01:00:00
  Routing Time Step ........ 30.00 sec
  Variable Time Step ....... YES
  Maximum Trials ........... 8
  Number of Threads ........ 1
  Head Tolerance ........... 0.001500 m
  
  
  **************************        Volume         Depth
  Runoff Quantity Continuity     hectare-m            mm
  **************************     ---------       -------
  Total Precipitation ......         2.017        11.191
  Evaporation Loss .........         0.000         0.000
  Infiltration Loss ........         0.000         0.000
  Surface Runoff ...........         2.007        11.138
  Final Storage ............         0.047         0.261
  Continuity Error (%) .....        -1.858
  
  
  **************************        Volume        Volume
  Flow Routing Continuity        hectare-m      10^6 ltr
  **************************     ---------     ---------
  Dry Weather Inflow .......         0.171         1.713
  Wet Weather Inflow .......         2.006        20.064
  Groundwater Inflow .......         0.000         0.000
  RDII Inflow ..............         0.000         0.000
  External Inflow ..........         0.000         0.000
  External Outflow .........         0.260         2.595
  Flooding Loss ............         0.935         9.351
  Evaporation Loss .........         0.000         0.000
  Exfiltration Loss ........         0.000         0.000
  Initial Stored Volume ....         0.000         0.000
  Final Stored Volume ......         0.724         7.239
  Continuity Error (%) .....        11.907
  
  
  *************************
  Highest Continuity Errors
  *************************
  Node T6 (37.56%)
  Node T2 (33.56%)
  Node T3 (28.10%)
  Node T4 (27.97%)
  Node T5 (13.58%)
  
  
  ***************************
  Time-Step Critical Elements
  ***************************
  Link C15 (57.46%)
  Link C5 (4.42%)
  
  
  ********************************
  Highest Flow Instability Indexes
  ********************************
  Link C5 (4)
  Link C6 (4)
  Link C13 (3)
  Link C23 (3)
  Link C3 (3)
  
  
  *************************
  Routing Time Step Summary
  *************************
  Minimum Time Step           :     0.85 sec
  Average Time Step           :    21.98 sec
  Maximum Time Step           :    30.00 sec
  Percent in Steady State     :     2.57
  Average Iterations per Step :     3.26
  Percent Not Converging      :     5.83
  
  
  ***************************
  Subcatchment Runoff Summary
  ***************************
  
  ------------------------------------------------------------------------------------------------------------------------------
                            Total      Total      Total      Total     Imperv       Perv      Total       Total     Peak  Runoff
                           Precip      Runon       Evap      Infil     Runoff     Runoff     Runoff      Runoff   Runoff   Coeff
  Subcatchment                 mm         mm         mm         mm         mm         mm         mm    10^6 ltr      CMS
  ------------------------------------------------------------------------------------------------------------------------------
  SC01                      17.28       0.00       0.00       0.00      17.50       0.00      17.50        5.77     5.92   1.012
  SC010                     17.28       0.00       0.00       0.00      17.36       0.00      17.36        2.04     1.84   1.004
  SC02                      11.20       0.00       0.00       0.00      11.23       0.00      11.23        2.56     2.13   1.003
  SC03                       8.42       0.00       0.00       0.00       8.54       0.00       8.54        1.54     1.10   1.014
  SC04                      11.20       0.00       0.00       0.00      10.85       0.00      10.85        0.75     0.41   0.968
  SC05                      17.28       0.00       0.00       0.00      17.46       0.00      17.46        2.72     2.71   1.010
  SC06                       5.10       0.00       0.00       0.00       4.65       0.00       4.65        1.51     0.72   0.912
  SC07                      11.20       0.00       0.00       0.00      10.85       0.00      10.85        0.52     0.28   0.969
  SC08                       8.42       0.00       0.00       0.00       8.31       0.00       8.31        2.33     1.35   0.987
  SC09                       5.10       0.00       0.00       0.00       4.89       0.00       4.89        0.34     0.21   0.959
  
  
  ******************
  Node Depth Summary
  ******************
  
  ---------------------------------------------------------------------------------
                                 Average  Maximum  Maximum  Time of Max    Reported
                                   Depth    Depth      HGL   Occurrence   Max Depth
  Node                 Type       Meters   Meters   Meters  days hr:min      Meters
  ---------------------------------------------------------------------------------
  CSO10                JUNCTION     0.40     1.00    31.00     0  00:36        1.00
  CSO7                 JUNCTION     0.48     1.20    35.20     0  00:44        1.20
  CSO8                 JUNCTION     0.71     2.00    34.00     0  00:32        2.00
  CSO9                 JUNCTION     0.44     2.00    42.00     0  00:37        2.00
  J1                   JUNCTION     0.17     0.73    34.73     0  00:46        0.64
  J10                  JUNCTION     0.17     0.38    29.38     0  00:45        0.37
  J11                  JUNCTION     0.17     0.30    31.30     0  01:00        0.30
  J12                  JUNCTION     0.20     0.41    26.41     0  00:47        0.40
  J13                  JUNCTION     0.13     0.38    29.38     0  00:50        0.37
  J14                  JUNCTION     0.10     0.18    20.18     0  02:01        0.18
  J15                  JUNCTION     0.33     1.12    16.12     0  00:50        1.12
  J16                  JUNCTION     0.16     0.58    30.58     0  00:45        0.57
  J17                  JUNCTION     0.10     0.15    20.15     0  01:34        0.15
  J18                  JUNCTION     0.09     0.16    29.16     0  01:10        0.16
  J19                  JUNCTION     0.15     0.17     8.17     0  00:47        0.17
  J2                   JUNCTION     0.07     0.08    25.08     0  01:35        0.08
  J3                   JUNCTION     0.11     0.15    18.15     0  02:02        0.15
  J4                   JUNCTION     0.32     0.95    33.95     0  00:47        0.75
  J5                   JUNCTION     0.11     0.23    32.23     0  00:51        0.23
  J6                   JUNCTION     0.07     0.12    25.12     0  01:50        0.12
  J7                   JUNCTION     0.12     0.23    39.23     0  00:53        0.23
  J8                   JUNCTION     0.15     0.30    36.30     0  00:45        0.30
  J9                   JUNCTION     0.10     0.16    29.16     0  01:43        0.16
  Out_to_WWTP          OUTFALL      0.14     0.17     6.17     0  00:48        0.17
  T1                   STORAGE      3.89     5.00    15.00     0  00:46        5.00
  T2                   STORAGE      3.64     5.00    26.00     0  01:11        5.00
  T3                   STORAGE      2.60     4.16    26.16     0  02:09        4.16
  T4                   STORAGE      3.15     4.85    31.85     0  02:44        4.85
  T5                   STORAGE      3.92     5.00    32.00     0  00:46        5.00
  T6                   STORAGE      3.08     4.90    35.90     0  03:20        4.90
  
  
  *******************
  Node Inflow Summary
  *******************
  
  -------------------------------------------------------------------------------------------------
                                  Maximum  Maximum                  Lateral       Total        Flow
                                  Lateral    Total  Time of Max      Inflow      Inflow     Balance
                                   Inflow   Inflow   Occurrence      Volume      Volume       Error
  Node                 Type           CMS      CMS  days hr:min    10^6 ltr    10^6 ltr     Percent
  -------------------------------------------------------------------------------------------------
  CSO10                JUNCTION     1.842    1.842     0  00:45         2.1         2.1      -0.008
  CSO7                 JUNCTION     0.292    0.292     0  00:50       0.641       0.642       0.085
  CSO8                 JUNCTION     1.362    1.362     0  00:45        2.45        2.45       0.022
  CSO9                 JUNCTION     0.221    0.221     0  00:45       0.422       0.422       0.115
  J1                   JUNCTION     2.729    2.729     0  00:45        2.97        2.97      -0.098
  J10                  JUNCTION     1.112    1.596     0  00:45         1.7         3.4       0.082
  J11                  JUNCTION     0.000    0.486     0  01:00           0        1.71       0.523
  J12                  JUNCTION     0.000    1.624     0  00:46           0        4.24      -0.401
  J13                  JUNCTION     2.152    2.152     0  00:50        2.76        2.76      -0.340
  J14                  JUNCTION     0.000    0.173     0  02:09           0       0.937       0.471
  J15                  JUNCTION     0.000    6.203     0  00:45           0        9.19       0.835
  J16                  JUNCTION     5.946    5.946     0  00:45        6.02        6.02      -0.219
  J17                  JUNCTION     0.000    0.140     0  01:12           0       0.689       0.607
  J18                  JUNCTION     0.000    0.202     0  01:10           0       0.775       0.090
  J19                  JUNCTION     0.000    0.271     0  00:46           0        2.61       0.469
  J2                   JUNCTION     0.000    0.039     0  00:46           0       0.386       1.392
  J3                   JUNCTION     0.000    0.251     0  02:00           0        1.73       1.833
  J4                   JUNCTION     0.000    0.085     0  00:45           0       0.443       0.793
  J5                   JUNCTION     0.411    0.486     0  00:50       0.804        1.24       0.044
  J6                   JUNCTION     0.000    0.077     0  01:49           0       0.417       0.890
  J7                   JUNCTION     0.000    0.127     0  00:53           0       0.373       0.951
  J8                   JUNCTION     0.759    0.882     0  00:45        1.92        2.29       0.102
  J9                   JUNCTION     0.000    0.165     0  02:10           0       0.841       0.420
  Out_to_WWTP          OUTFALL      0.000    0.271     0  00:48           0         2.6       0.000
  T1                   STORAGE      0.000    4.574     0  00:50           0        9.11       8.262
  T2                   STORAGE      0.000    2.121     0  00:50           0        2.77      50.505
  T3                   STORAGE      0.000    1.576     0  00:47           0        4.25      39.083
  T4                   STORAGE      0.000    0.481     0  00:51           0        1.24      38.826
  T5                   STORAGE      0.000    2.562     0  00:45           0        2.97      15.714
  T6                   STORAGE      0.000    0.862     0  00:46           0        2.29      60.143
  
  
  **********************
  Node Surcharge Summary
  **********************
  
  Surcharging occurs when water rises above the top of the highest conduit.
  ---------------------------------------------------------------------
                                               Max. Height   Min. Depth
                                   Hours       Above Crown    Below Rim
  Node                 Type      Surcharged         Meters       Meters
  ---------------------------------------------------------------------
  CSO10                JUNCTION        0.63          0.560        0.000
  CSO7                 JUNCTION        0.81          0.945        0.000
  CSO8                 JUNCTION        0.71          1.547        0.000
  CSO9                 JUNCTION        0.42          1.682        0.000
  J4                   JUNCTION        0.78          0.653        1.047
  
  
  *********************
  Node Flooding Summary
  *********************
  
  Flooding refers to all water that overflows a node, whether it ponds or not.
  --------------------------------------------------------------------------
                                                             Total   Maximum
                                 Maximum   Time of Max       Flood    Ponded
                        Hours       Rate    Occurrence      Volume     Depth
  Node                 Flooded       CMS   days hr:min    10^6 ltr    Meters
  --------------------------------------------------------------------------
  CSO10                   0.57     1.630      0  00:45       1.326     0.000
  CSO7                    0.69     0.217      0  00:50       0.198     0.000
  CSO8                    0.46     0.872      0  00:45       0.736     0.000
  CSO9                    0.27     0.094      0  00:45       0.049     0.000
  T1                      1.92     4.302      0  00:50       5.174     0.000
  T2                      1.04     0.159      0  01:11       0.150     0.000
  T5                      1.29     2.483      0  00:46       1.713     0.000
  
  
  **********************
  Storage Volume Summary
  **********************
  
  --------------------------------------------------------------------------------------------------
                         Average     Avg  Evap Exfil       Maximum     Max    Time of Max    Maximum
                          Volume    Pcnt  Pcnt  Pcnt        Volume    Pcnt     Occurrence    Outflow
  Storage Unit           1000 m3    Full  Loss  Loss       1000 m3    Full    days hr:min        CMS
  --------------------------------------------------------------------------------------------------
  T1                       0.544      78     0     0         0.700     100       0  00:46      0.271
  T2                       0.728      73     0     0         1.000     100       0  01:11      0.140
  T3                       1.350      52     0     0         2.165      83       0  02:09      0.173
  T4                       0.315      63     0     0         0.485      97       0  02:44      0.077
  T5                       0.392      78     0     0         0.500     100       0  00:46      0.039
  T6                       0.370      62     0     0         0.589      98       0  03:20      0.165
  
  
  ***********************
  Outfall Loading Summary
  ***********************
  
  -----------------------------------------------------------
                         Flow       Avg       Max       Total
                         Freq      Flow      Flow      Volume
  Outfall Node           Pcnt       CMS       CMS    10^6 ltr
  -----------------------------------------------------------
  Out_to_WWTP           98.34     0.220     0.271       2.595
  -----------------------------------------------------------
  System                98.34     0.220     0.271       2.595
  
  
  ********************
  Link Flow Summary
  ********************
  
  -----------------------------------------------------------------------------
                                 Maximum  Time of Max   Maximum    Max/    Max/
                                  |Flow|   Occurrence   |Veloc|    Full    Full
  Link                 Type          CMS  days hr:min     m/sec    Flow   Depth
  -----------------------------------------------------------------------------
  C1                   CONDUIT     0.039     0  01:35      1.26    0.01    0.12
  C10                  CONDUIT     0.862     0  00:46      1.87    0.09    0.60
  C11                  CONDUIT     0.243     0  02:03      1.82    0.01    0.30
  C12                  CONDUIT     0.163     0  01:43      1.35    0.01    0.13
  C13                  CONDUIT     1.576     0  00:47      3.43    0.09    0.59
  C14                  CONDUIT     0.271     0  00:48      2.08    0.02    0.09
  C15                  CONDUIT     0.486     0  01:00      3.90    1.55    0.83
  C16                  CONDUIT     0.486     0  00:55      1.82    0.05    0.17
  C17                  CONDUIT     1.555     0  00:45      3.84    0.08    0.20
  C18                  CONDUIT     2.121     0  00:50      3.12    0.08    0.60
  C19                  CONDUIT     0.140     0  01:34      1.34    0.05    0.56
  C2                   CONDUIT     0.077     0  01:50      1.80    0.09    0.22
  C20                  CONDUIT     5.880     0  00:45      6.00    0.18    0.40
  C21                  CONDUIT     0.202     0  01:10      1.94    1.16    0.69
  C22                  CONDUIT     0.202     0  01:10      1.44    0.09    0.60
  C23                  CONDUIT     4.574     0  00:50      3.07    0.51    0.87
  C3                   CONDUIT     0.173     0  02:02      2.02    0.07    0.17
  C4                   CONDUIT     2.562     0  00:45      3.59    0.62    0.87
  C5                   CONDUIT     0.085     0  00:45      1.67    1.45    1.00
  C6                   CONDUIT     0.075     0  00:50      1.29    1.19    0.89
  C7                   CONDUIT     0.481     0  00:51      2.08    0.12    0.62
  C8                   CONDUIT     0.127     0  00:53      1.88    1.60    0.86
  C9                   CONDUIT     0.127     0  00:53      1.31    0.43    0.53
  V1                   ORIFICE     0.271     0  00:46                      1.00
  V2                   ORIFICE     0.140     0  01:12                      1.00
  V3                   ORIFICE     0.173     0  02:09                      1.00
  V4                   ORIFICE     0.077     0  01:49                      1.00
  V5                   ORIFICE     0.039     0  00:46                      1.00
  V6                   ORIFICE     0.165     0  02:10                      1.00
  
  
  ***************************
  Flow Classification Summary
  ***************************
  
  -------------------------------------------------------------------------------------
                      Adjusted    ---------- Fraction of Time in Flow Class ---------- 
                       /Actual         Up    Down  Sub   Sup   Up    Down  Norm  Inlet 
  Conduit               Length    Dry  Dry   Dry   Crit  Crit  Crit  Crit  Ltd   Ctrl  
  -------------------------------------------------------------------------------------
  C1                      1.00   0.00  0.00  0.00  0.27  0.73  0.00  0.00  0.93  0.00
  C10                     1.00   0.00  0.00  0.00  0.88  0.12  0.00  0.00  0.95  0.00
  C11                     1.00   0.00  0.00  0.00  0.60  0.39  0.00  0.00  1.00  0.00
  C12                     1.00   0.00  0.00  0.00  0.87  0.12  0.00  0.00  1.00  0.00
  C13                     1.00   0.00  0.00  0.00  0.79  0.21  0.00  0.00  0.72  0.00
  C14                     1.00   0.01  0.00  0.00  0.01  0.97  0.00  0.00  0.15  0.00
  C15                     1.00   0.00  0.00  0.00  0.00  1.00  0.00  0.00  0.00  0.00
  C16                     1.00   0.00  0.00  0.00  0.26  0.74  0.00  0.00  0.27  0.00
  C17                     1.00   0.00  0.00  0.00  0.04  0.96  0.00  0.00  0.91  0.00
  C18                     1.00   0.00  0.00  0.00  0.94  0.06  0.00  0.00  0.95  0.00
  C19                     1.00   0.00  0.00  0.00  0.84  0.15  0.00  0.00  0.98  0.00
  C2                      1.00   0.01  0.00  0.00  0.29  0.70  0.00  0.00  0.87  0.00
  C20                     1.00   0.00  0.00  0.00  0.37  0.63  0.00  0.00  0.94  0.00
  C21                     1.00   0.00  0.00  0.00  0.01  0.99  0.00  0.00  0.00  0.00
  C22                     1.00   0.00  0.00  0.00  0.83  0.16  0.00  0.00  1.00  0.00
  C23                     1.00   0.00  0.00  0.00  0.82  0.18  0.00  0.00  0.81  0.00
  C3                      1.00   0.01  0.01  0.00  0.10  0.88  0.00  0.00  0.65  0.00
  C4                      1.00   0.00  0.00  0.00  0.83  0.17  0.00  0.00  0.91  0.00
  C5                      1.00   0.00  0.00  0.00  0.94  0.06  0.00  0.00  0.68  0.00
  C6                      1.00   0.00  0.00  0.00  0.40  0.60  0.00  0.00  0.01  0.00
  C7                      1.00   0.00  0.00  0.00  0.93  0.07  0.00  0.00  0.94  0.00
  C8                      1.00   0.00  0.00  0.00  0.23  0.77  0.00  0.00  0.00  0.00
  C9                      1.00   0.00  0.00  0.00  1.00  0.00  0.00  0.00  1.00  0.00
  
  
  *************************
  Conduit Surcharge Summary
  *************************
  
  ----------------------------------------------------------------------------
                                                           Hours        Hours 
                         --------- Hours Full --------   Above Full   Capacity
  Conduit                Both Ends  Upstream  Dnstream   Normal Flow   Limited
  ----------------------------------------------------------------------------
  C10                         0.01      0.01      2.54      0.01         0.01
  C13                         0.01      0.01      2.39      0.01         0.01
  C15                         0.01      0.71      0.01      0.73         0.01
  C18                         0.01      0.01      2.50      0.01         0.01
  C19                         0.01      0.01      0.11      0.01         0.01
  C21                         0.01      0.63      0.01      0.61         0.01
  C22                         0.01      0.01      0.19      0.01         0.01
  C23                         0.01      0.01      2.63      0.01         0.01
  C4                          0.01      0.01      2.67      0.01         0.01
  C5                          0.78      0.81      0.88      0.80         0.75
  C6                          0.01      0.78      0.01      0.70         0.01
  C7                          0.01      0.01      2.55      0.01         0.01
  C8                          0.01      0.42      0.01      0.44         0.01
  

  Analysis begun on:  Sun Jul 17 20:14:24 2022
  Analysis ended on:  Sun Jul 17 20:14:25 2022
  Total elapsed time: 00:00:01