
  EPA STORM WATER MANAGEMENT MODEL - VERSION 5.1 (Build 5.3.0.dev0)
  --------------------------------------------------------------

  
  *********************************************************
  NOTE: The summary statistics displayed in this report are
  based on results found at every computational time step,  
  not just on results from each reporting time step.
  *********************************************************
  
  ****************
  Analysis Options
  ****************
  Flow Units ............... CMS
  Process Models:
    Rainfall/Runoff ........ YES
    RDII ................... NO
    Snowmelt ............... NO
    Groundwater ............ NO
    Flow Routing ........... YES
    Ponding Allowed ........ NO
    Water Quality .......... NO
  Infiltration Method ...... HORTON
  Flow Routing Method ...... DYNWAVE
  Surcharge Method ......... EXTRAN
  Starting Date ............ 03/30/2009 07:45:00
  Ending Date .............. 03/30/2009 20:10:00
  Antecedent Dry Days ...... 0.0
  Report Time Step ......... 00:05:00
  Wet Time Step ............ 00:05:00
  Dry Time Step ............ 01:00:00
  Routing Time Step ........ 30.00 sec
  Variable Time Step ....... YES
  Maximum Trials ........... 8
  Number of Threads ........ 1
  Head Tolerance ........... 0.001500 m
  
  
  **************************        Volume         Depth
  Runoff Quantity Continuity     hectare-m            mm
  **************************     ---------       -------
  Total Precipitation ......         1.064         5.906
  Evaporation Loss .........         0.000         0.000
  Infiltration Loss ........         0.000         0.000
  Surface Runoff ...........         1.031         5.719
  Final Storage ............         0.035         0.193
  Continuity Error (%) .....        -0.105
  
  
  **************************        Volume        Volume
  Flow Routing Continuity        hectare-m      10^6 ltr
  **************************     ---------     ---------
  Dry Weather Inflow .......         0.559         5.592
  Wet Weather Inflow .......         1.030        10.301
  Groundwater Inflow .......         0.000         0.000
  RDII Inflow ..............         0.000         0.000
  External Inflow ..........         0.000         0.000
  External Outflow .........         0.886         8.858
  Flooding Loss ............         0.000         0.000
  Evaporation Loss .........         0.000         0.000
  Exfiltration Loss ........         0.000         0.000
  Initial Stored Volume ....         0.000         0.000
  Final Stored Volume ......         0.565         5.646
  Continuity Error (%) .....         8.738
  
  
  *************************
  Highest Continuity Errors
  *************************
  Node T2 (33.21%)
  Node T3 (20.56%)
  Node T5 (16.87%)
  Node T6 (13.15%)
  Node T1 (5.15%)
  
  
  ***************************
  Time-Step Critical Elements
  ***************************
  Link C15 (30.99%)
  
  
  ********************************
  Highest Flow Instability Indexes
  ********************************
  Link C11 (5)
  Link C23 (5)
  Link C3 (4)
  Link V3 (4)
  Link C13 (4)
  
  
  *************************
  Routing Time Step Summary
  *************************
  Minimum Time Step           :     0.07 sec
  Average Time Step           :    28.20 sec
  Maximum Time Step           :    30.00 sec
  Percent in Steady State     :     7.32
  Average Iterations per Step :     2.03
  Percent Not Converging      :     0.00
  
  
  ***************************
  Subcatchment Runoff Summary
  ***************************
  
  ------------------------------------------------------------------------------------------------------------------------------
                            Total      Total      Total      Total     Imperv       Perv      Total       Total     Peak  Runoff
                           Precip      Runon       Evap      Infil     Runoff     Runoff     Runoff      Runoff   Runoff   Coeff
  Subcatchment                 mm         mm         mm         mm         mm         mm         mm    10^6 ltr      CMS
  ------------------------------------------------------------------------------------------------------------------------------
  SC01                       6.39       0.00       0.00       0.00       6.26       0.00       6.26        2.07     0.14   0.980
  SC010                      6.39       0.00       0.00       0.00       6.21       0.00       6.21        0.73     0.05   0.972
  SC02                       5.44       0.00       0.00       0.00       5.31       0.00       5.31        1.21     0.08   0.976
  SC03                       5.65       0.00       0.00       0.00       5.56       0.00       5.56        1.00     0.09   0.984
  SC04                       5.44       0.00       0.00       0.00       5.18       0.00       5.18        0.36     0.02   0.952
  SC05                       6.39       0.00       0.00       0.00       6.25       0.00       6.25        0.98     0.07   0.978
  SC06                       5.87       0.00       0.00       0.00       5.53       0.00       5.53        1.80     0.11   0.942
  SC07                       5.44       0.00       0.00       0.00       5.18       0.00       5.18        0.25     0.02   0.952
  SC08                       5.65       0.00       0.00       0.00       5.47       0.00       5.47        1.53     0.12   0.969
  SC09                       5.87       0.00       0.00       0.00       5.66       0.00       5.66        0.39     0.03   0.963
  
  
  ******************
  Node Depth Summary
  ******************
  
  ---------------------------------------------------------------------------------
                                 Average  Maximum  Maximum  Time of Max    Reported
                                   Depth    Depth      HGL   Occurrence   Max Depth
  Node                 Type       Meters   Meters   Meters  days hr:min      Meters
  ---------------------------------------------------------------------------------
  CSO10                JUNCTION     0.11     0.18    30.18     0  04:05        0.18
  CSO7                 JUNCTION     0.09     0.13    34.13     0  04:25        0.13
  CSO8                 JUNCTION     0.11     0.21    32.21     0  03:20        0.21
  CSO9                 JUNCTION     0.10     0.16    40.16     0  03:20        0.16
  J1                   JUNCTION     0.07     0.10    34.10     0  04:06        0.10
  J10                  JUNCTION     0.09     0.15    29.15     0  03:23        0.15
  J11                  JUNCTION     0.09     0.16    31.16     0  03:25        0.16
  J12                  JUNCTION     0.13     0.19    26.19     0  03:30        0.19
  J13                  JUNCTION     0.06     0.09    29.09     0  04:20        0.09
  J14                  JUNCTION     0.11     0.18    20.18     0  09:52        0.17
  J15                  JUNCTION     0.16     0.21    15.21     0  04:13        0.21
  J16                  JUNCTION     0.06     0.10    30.10     0  04:06        0.10
  J17                  JUNCTION     0.05     0.12    20.12     0  05:55        0.12
  J18                  JUNCTION     0.05     0.09    29.09     0  04:08        0.09
  J19                  JUNCTION     0.14     0.17     8.17     0  06:17        0.17
  J2                   JUNCTION     0.06     0.07    25.07     0  06:26        0.07
  J3                   JUNCTION     0.11     0.15    18.15     0  06:05        0.15
  J4                   JUNCTION     0.11     0.15    33.15     0  04:26        0.15
  J5                   JUNCTION     0.06     0.08    32.08     0  04:25        0.08
  J6                   JUNCTION     0.06     0.10    25.10     0  05:58        0.10
  J7                   JUNCTION     0.08     0.12    39.12     0  03:22        0.12
  J8                   JUNCTION     0.10     0.14    36.14     0  03:21        0.14
  J9                   JUNCTION     0.10     0.16    29.16     0  06:14        0.16
  Out_to_WWTP          OUTFALL      0.14     0.17     6.17     0  06:17        0.17
  T1                   STORAGE      3.07     4.75    14.75     0  06:16        4.74
  T2                   STORAGE      1.64     2.77    23.77     0  12:25        2.77
  T3                   STORAGE      2.25     3.91    25.91     0  10:44        3.91
  T4                   STORAGE      1.11     1.88    28.88     0  05:50        1.88
  T5                   STORAGE      2.47     3.46    30.46     0  06:24        3.46
  T6                   STORAGE      2.53     4.06    35.06     0  06:05        4.06
  
  
  *******************
  Node Inflow Summary
  *******************
  
  -------------------------------------------------------------------------------------------------
                                  Maximum  Maximum                  Lateral       Total        Flow
                                  Lateral    Total  Time of Max      Inflow      Inflow     Balance
                                   Inflow   Inflow   Occurrence      Volume      Volume       Error
  Node                 Type           CMS      CMS  days hr:min    10^6 ltr    10^6 ltr     Percent
  -------------------------------------------------------------------------------------------------
  CSO10                JUNCTION     0.055    0.055     0  04:05       0.928       0.929       0.010
  CSO7                 JUNCTION     0.029    0.029     0  04:25       0.659        0.66       0.051
  CSO8                 JUNCTION     0.131    0.131     0  03:20        1.91        1.91      -0.012
  CSO9                 JUNCTION     0.036    0.036     0  03:20       0.669       0.669       0.067
  J1                   JUNCTION     0.090    0.090     0  04:05        1.77        1.78      -0.016
  J10                  JUNCTION     0.108    0.234     0  03:21        1.55        3.46       0.060
  J11                  JUNCTION     0.000    0.131     0  03:20           0        1.91       0.049
  J12                  JUNCTION     0.000    0.326     0  03:27           0        6.32       0.882
  J13                  JUNCTION     0.102    0.102     0  04:20        1.87        1.88      -0.202
  J14                  JUNCTION     0.000    0.158     0  09:56           0        3.14       0.113
  J15                  JUNCTION     0.000    0.407     0  04:10           0        9.87       0.256
  J16                  JUNCTION     0.167    0.167     0  04:05        2.85        2.86      -0.037
  J17                  JUNCTION     0.000    0.087     0  05:50           0       0.704      -0.340
  J18                  JUNCTION     0.000    0.054     0  04:06           0       0.929       0.035
  J19                  JUNCTION     0.000    0.264     0  06:17           0        8.87       0.120
  J2                   JUNCTION     0.000    0.033     0  06:24           0        1.17       0.393
  J3                   JUNCTION     0.000    0.222     0  06:23           0        5.34      -0.577
  J4                   JUNCTION     0.000    0.029     0  04:25           0        0.66       0.419
  J5                   JUNCTION     0.028    0.056     0  04:25       0.538         1.2       0.067
  J6                   JUNCTION     0.000    0.049     0  05:51           0        1.05       1.010
  J7                   JUNCTION     0.000    0.036     0  03:20           0       0.669       0.360
  J8                   JUNCTION     0.155    0.188     0  03:20        3.14        3.81       0.095
  J9                   JUNCTION     0.000    0.158     0  06:05           0        2.87       0.215
  Out_to_WWTP          OUTFALL      0.000    0.264     0  06:17           0        8.86       0.000
  T1                   STORAGE      0.000    0.380     0  04:13           0        9.84       5.428
  T2                   STORAGE      0.000    0.102     0  04:21           0        1.88      49.721
  T3                   STORAGE      0.000    0.318     0  03:30           0        6.27      25.878
  T4                   STORAGE      0.000    0.056     0  04:25           0         1.2       2.844
  T5                   STORAGE      0.000    0.089     0  04:06           0        1.78      20.291
  T6                   STORAGE      0.000    0.186     0  03:21           0         3.8      15.147
  
  
  **********************
  Node Surcharge Summary
  **********************
  
  No nodes were surcharged.
  
  
  *********************
  Node Flooding Summary
  *********************
  
  No nodes were flooded.
  
  
  **********************
  Storage Volume Summary
  **********************
  
  --------------------------------------------------------------------------------------------------
                         Average     Avg  Evap Exfil       Maximum     Max    Time of Max    Maximum
                          Volume    Pcnt  Pcnt  Pcnt        Volume    Pcnt     Occurrence    Outflow
  Storage Unit           1000 m3    Full  Loss  Loss       1000 m3    Full    days hr:min        CMS
  --------------------------------------------------------------------------------------------------
  T1                       0.429      61     0     0         0.665      95       0  06:16      0.264
  T2                       0.328      33     0     0         0.555      55       0  12:25      0.087
  T3                       1.170      45     0     0         2.033      78       0  10:44      0.158
  T4                       0.111      22     0     0         0.188      38       0  05:50      0.049
  T5                       0.247      49     0     0         0.346      69       0  06:24      0.033
  T6                       0.304      51     0     0         0.487      81       0  06:05      0.158
  
  
  ***********************
  Outfall Loading Summary
  ***********************
  
  -----------------------------------------------------------
                         Flow       Avg       Max       Total
                         Freq      Flow      Flow      Volume
  Outfall Node           Pcnt       CMS       CMS    10^6 ltr
  -----------------------------------------------------------
  Out_to_WWTP           99.30     0.200     0.264       8.858
  -----------------------------------------------------------
  System                99.30     0.200     0.264       8.858
  
  
  ********************
  Link Flow Summary
  ********************
  
  -----------------------------------------------------------------------------
                                 Maximum  Time of Max   Maximum    Max/    Max/
                                  |Flow|   Occurrence   |Veloc|    Full    Full
  Link                 Type          CMS  days hr:min     m/sec    Flow   Depth
  -----------------------------------------------------------------------------
  C1                   CONDUIT     0.033     0  06:26      1.01    0.01    0.11
  C10                  CONDUIT     0.186     0  03:21      1.66    0.02    0.55
  C11                  CONDUIT     0.218     0  06:05      1.83    0.01    0.09
  C12                  CONDUIT     0.156     0  06:15      1.42    0.01    0.08
  C13                  CONDUIT     0.318     0  03:30      1.50    0.02    0.54
  C14                  CONDUIT     0.264     0  06:17      2.06    0.01    0.08
  C15                  CONDUIT     0.131     0  03:20      2.14    0.42    0.41
  C16                  CONDUIT     0.130     0  03:25      1.17    0.01    0.08
  C17                  CONDUIT     0.233     0  03:23      1.99    0.01    0.08
  C18                  CONDUIT     0.102     0  04:21      3.36    0.00    0.52
  C19                  CONDUIT     0.085     0  05:55      1.12    0.03    0.15
  C2                   CONDUIT     0.048     0  05:59      1.45    0.06    0.20
  C20                  CONDUIT     0.165     0  04:06      2.34    0.01    0.08
  C21                  CONDUIT     0.054     0  04:06      1.38    0.31    0.31
  C22                  CONDUIT     0.053     0  04:08      0.91    0.02    0.18
  C23                  CONDUIT     0.380     0  04:13      1.24    0.04    0.57
  C3                   CONDUIT     0.160     0  09:53      2.15    0.06    0.16
  C4                   CONDUIT     0.089     0  04:06      3.06    0.02    0.55
  C5                   CONDUIT     0.029     0  04:25      1.23    0.49    0.55
  C6                   CONDUIT     0.028     0  04:26      1.10    0.45    0.39
  C7                   CONDUIT     0.056     0  04:25      1.44    0.01    0.54
  C8                   CONDUIT     0.036     0  03:20      1.10    0.45    0.43
  C9                   CONDUIT     0.035     0  03:22      0.87    0.12    0.26
  V1                   ORIFICE     0.264     0  06:17                      1.00
  V2                   ORIFICE     0.087     0  05:50                      1.00
  V3                   ORIFICE     0.158     0  09:56                      1.00
  V4                   ORIFICE     0.049     0  05:51                      1.00
  V5                   ORIFICE     0.033     0  06:24                      1.00
  V6                   ORIFICE     0.158     0  06:05                      1.00
  
  
  ***************************
  Flow Classification Summary
  ***************************
  
  -------------------------------------------------------------------------------------
                      Adjusted    ---------- Fraction of Time in Flow Class ---------- 
                       /Actual         Up    Down  Sub   Sup   Up    Down  Norm  Inlet 
  Conduit               Length    Dry  Dry   Dry   Crit  Crit  Crit  Crit  Ltd   Ctrl  
  -------------------------------------------------------------------------------------
  C1                      1.00   0.00  0.00  0.00  0.38  0.62  0.00  0.00  0.96  0.00
  C10                     1.00   0.00  0.00  0.00  0.97  0.03  0.00  0.00  0.98  0.00
  C11                     1.00   0.00  0.00  0.00  0.19  0.81  0.00  0.00  1.00  0.00
  C12                     1.00   0.00  0.00  0.00  0.61  0.39  0.00  0.00  0.86  0.00
  C13                     1.00   0.00  0.00  0.00  0.92  0.08  0.00  0.00  0.94  0.00
  C14                     1.00   0.00  0.00  0.00  0.00  0.99  0.00  0.00  0.35  0.00
  C15                     1.00   0.00  0.00  0.00  0.00  1.00  0.00  0.00  0.00  0.00
  C16                     1.00   0.00  0.00  0.00  0.22  0.78  0.00  0.00  0.25  0.00
  C17                     1.00   0.00  0.00  0.00  0.16  0.84  0.00  0.00  0.98  0.00
  C18                     1.00   0.00  0.00  0.00  0.94  0.06  0.00  0.00  0.98  0.00
  C19                     1.00   0.00  0.00  0.00  0.98  0.02  0.00  0.00  1.00  0.00
  C2                      1.00   0.00  0.00  0.00  0.47  0.53  0.00  0.00  1.00  0.00
  C20                     1.00   0.00  0.00  0.00  0.47  0.53  0.00  0.00  0.99  0.00
  C21                     1.00   0.00  0.00  0.00  0.00  1.00  0.00  0.00  0.00  0.00
  C22                     1.00   0.00  0.00  0.00  0.99  0.01  0.00  0.00  1.00  0.00
  C23                     1.00   0.00  0.00  0.00  0.93  0.07  0.00  0.00  0.97  0.00
  C3                      1.00   0.00  0.00  0.00  0.03  0.97  0.00  0.00  0.49  0.00
  C4                      1.00   0.00  0.00  0.00  0.97  0.03  0.00  0.00  0.99  0.00
  C5                      1.00   0.00  0.00  0.00  0.96  0.04  0.00  0.00  0.99  0.00
  C6                      1.00   0.00  0.00  0.00  0.01  0.99  0.00  0.00  0.00  0.00
  C7                      1.00   0.00  0.00  0.00  0.97  0.03  0.00  0.00  0.98  0.00
  C8                      1.00   0.00  0.00  0.00  0.00  1.00  0.00  0.00  0.00  0.00
  C9                      1.00   0.00  0.00  0.00  1.00  0.00  0.00  0.00  1.00  0.00
  
  
  *************************
  Conduit Surcharge Summary
  *************************
  
  ----------------------------------------------------------------------------
                                                           Hours        Hours 
                         --------- Hours Full --------   Above Full   Capacity
  Conduit                Both Ends  Upstream  Dnstream   Normal Flow   Limited
  ----------------------------------------------------------------------------
  C10                         0.01      0.01      9.15      0.01         0.01
  C13                         0.01      0.01      7.82      0.01         0.01
  C18                         0.01      0.01      6.41      0.01         0.01
  C23                         0.01      0.01      9.49      0.01         0.01
  C4                          0.01      0.01      9.94      0.01         0.01
  C7                          0.01      0.01      8.53      0.01         0.01
  

  Analysis begun on:  Sun Jul 17 21:26:38 2022
  Analysis ended on:  Sun Jul 17 21:26:39 2022
  Total elapsed time: 00:00:01