
  EPA STORM WATER MANAGEMENT MODEL - VERSION 5.1 (Build 5.3.0.dev0)
  --------------------------------------------------------------

  
  *********************************************************
  NOTE: The summary statistics displayed in this report are
  based on results found at every computational time step,  
  not just on results from each reporting time step.
  *********************************************************
  
  ****************
  Analysis Options
  ****************
  Flow Units ............... CMS
  Process Models:
    Rainfall/Runoff ........ YES
    RDII ................... NO
    Snowmelt ............... NO
    Groundwater ............ NO
    Flow Routing ........... YES
    Ponding Allowed ........ NO
    Water Quality .......... NO
  Infiltration Method ...... HORTON
  Flow Routing Method ...... DYNWAVE
  Surcharge Method ......... EXTRAN
  Starting Date ............ 04/18/2008 15:40:00
  Ending Date .............. 04/18/2008 22:25:00
  Antecedent Dry Days ...... 0.0
  Report Time Step ......... 00:05:00
  Wet Time Step ............ 00:05:00
  Dry Time Step ............ 01:00:00
  Routing Time Step ........ 30.00 sec
  Variable Time Step ....... YES
  Maximum Trials ........... 8
  Number of Threads ........ 1
  Head Tolerance ........... 0.001500 m
  
  
  **************************        Volume         Depth
  Runoff Quantity Continuity     hectare-m            mm
  **************************     ---------       -------
  Total Precipitation ......         1.261         6.998
  Evaporation Loss .........         0.000         0.000
  Infiltration Loss ........         0.000         0.000
  Surface Runoff ...........         1.224         6.793
  Final Storage ............         0.038         0.213
  Continuity Error (%) .....        -0.124
  
  
  **************************        Volume        Volume
  Flow Routing Continuity        hectare-m      10^6 ltr
  **************************     ---------     ---------
  Dry Weather Inflow .......         0.209         2.091
  Wet Weather Inflow .......         1.224        12.238
  Groundwater Inflow .......         0.000         0.000
  RDII Inflow ..............         0.000         0.000
  External Inflow ..........         0.000         0.000
  External Outflow .........         0.483         4.833
  Flooding Loss ............         0.056         0.563
  Evaporation Loss .........         0.000         0.000
  Exfiltration Loss ........         0.000         0.000
  Initial Stored Volume ....         0.000         0.000
  Final Stored Volume ......         0.677         6.773
  Continuity Error (%) .....        15.074
  
  
  *************************
  Highest Continuity Errors
  *************************
  Node T2 (37.97%)
  Node T4 (29.66%)
  Node T6 (27.08%)
  Node T5 (26.85%)
  Node T3 (24.06%)
  
  
  ***************************
  Time-Step Critical Elements
  ***************************
  Link C15 (70.15%)
  
  
  ********************************
  Highest Flow Instability Indexes
  ********************************
  Link C13 (6)
  Link C11 (3)
  Link V3 (3)
  Link C23 (3)
  Link C3 (3)
  
  
  *************************
  Routing Time Step Summary
  *************************
  Minimum Time Step           :     0.30 sec
  Average Time Step           :    24.60 sec
  Maximum Time Step           :    30.00 sec
  Percent in Steady State     :     1.48
  Average Iterations per Step :     2.02
  Percent Not Converging      :     0.00
  
  
  ***************************
  Subcatchment Runoff Summary
  ***************************
  
  ------------------------------------------------------------------------------------------------------------------------------
                            Total      Total      Total      Total     Imperv       Perv      Total       Total     Peak  Runoff
                           Precip      Runon       Evap      Infil     Runoff     Runoff     Runoff      Runoff   Runoff   Coeff
  Subcatchment                 mm         mm         mm         mm         mm         mm         mm    10^6 ltr      CMS
  ------------------------------------------------------------------------------------------------------------------------------
  SC01                       6.96       0.00       0.00       0.00       6.83       0.00       6.83        2.26     0.25   0.982
  SC010                      6.96       0.00       0.00       0.00       6.78       0.00       6.78        0.80     0.09   0.974
  SC02                       8.12       0.00       0.00       0.00       7.98       0.00       7.98        1.82     0.23   0.983
  SC03                       7.33       0.00       0.00       0.00       7.24       0.00       7.24        1.30     0.17   0.988
  SC04                       8.12       0.00       0.00       0.00       7.80       0.00       7.80        0.54     0.05   0.960
  SC05                       6.96       0.00       0.00       0.00       6.82       0.00       6.82        1.06     0.12   0.980
  SC06                       5.69       0.00       0.00       0.00       5.28       0.00       5.28        1.72     0.15   0.929
  SC07                       8.12       0.00       0.00       0.00       7.80       0.00       7.80        0.37     0.04   0.960
  SC08                       7.33       0.00       0.00       0.00       7.14       0.00       7.14        2.00     0.23   0.975
  SC09                       5.69       0.00       0.00       0.00       5.46       0.00       5.46        0.38     0.03   0.959
  
  
  ******************
  Node Depth Summary
  ******************
  
  ---------------------------------------------------------------------------------
                                 Average  Maximum  Maximum  Time of Max    Reported
                                   Depth    Depth      HGL   Occurrence   Max Depth
  Node                 Type       Meters   Meters   Meters  days hr:min      Meters
  ---------------------------------------------------------------------------------
  CSO10                JUNCTION     0.15     0.25    30.25     0  04:00        0.25
  CSO7                 JUNCTION     0.11     0.16    34.16     0  01:25        0.16
  CSO8                 JUNCTION     0.17     0.30    32.30     0  03:50        0.30
  CSO9                 JUNCTION     0.11     0.17    40.17     0  03:50        0.17
  J1                   JUNCTION     0.08     0.12    34.12     0  04:00        0.12
  J10                  JUNCTION     0.12     0.19    29.19     0  03:51        0.19
  J11                  JUNCTION     0.13     0.21    31.21     0  03:51        0.21
  J12                  JUNCTION     0.19     0.28    26.28     0  05:46        0.28
  J13                  JUNCTION     0.08     0.13    29.13     0  01:25        0.13
  J14                  JUNCTION     0.11     0.18    20.18     0  04:17        0.18
  J15                  JUNCTION     0.17     0.24    15.24     0  04:02        0.24
  J16                  JUNCTION     0.08     0.13    30.13     0  03:58        0.13
  J17                  JUNCTION     0.06     0.13    20.13     0  03:45        0.13
  J18                  JUNCTION     0.07     0.11    29.11     0  04:01        0.11
  J19                  JUNCTION     0.14     0.17     8.17     0  03:42        0.17
  J2                   JUNCTION     0.06     0.08    25.08     0  04:54        0.08
  J3                   JUNCTION     0.10     0.15    18.15     0  04:25        0.15
  J4                   JUNCTION     0.13     0.20    33.20     0  01:41        0.20
  J5                   JUNCTION     0.07     0.11    32.11     0  01:41        0.11
  J6                   JUNCTION     0.05     0.07    25.07     0  05:05        0.07
  J7                   JUNCTION     0.09     0.12    39.12     0  03:52        0.12
  J8                   JUNCTION     0.11     0.15    36.15     0  03:52        0.15
  J9                   JUNCTION     0.10     0.15    29.15     0  04:35        0.15
  Out_to_WWTP          OUTFALL      0.14     0.17     6.17     0  04:46        0.17
  T1                   STORAGE      3.23     5.00    15.00     0  03:40        5.00
  T2                   STORAGE      2.44     4.09    25.09     0  06:01        4.09
  T3                   STORAGE      2.37     4.28    26.28     0  05:50        4.28
  T4                   STORAGE      2.69     4.57    31.57     0  05:57        4.57
  T5                   STORAGE      2.53     4.32    31.32     0  04:52        4.32
  T6                   STORAGE      2.15     4.16    35.16     0  06:31        4.16
  
  
  *******************
  Node Inflow Summary
  *******************
  
  -------------------------------------------------------------------------------------------------
                                  Maximum  Maximum                  Lateral       Total        Flow
                                  Lateral    Total  Time of Max      Inflow      Inflow     Balance
                                   Inflow   Inflow   Occurrence      Volume      Volume       Error
  Node                 Type           CMS      CMS  days hr:min    10^6 ltr    10^6 ltr     Percent
  -------------------------------------------------------------------------------------------------
  CSO10                JUNCTION     0.091    0.091     0  04:00       0.873       0.873       0.039
  CSO7                 JUNCTION     0.044    0.044     0  01:25       0.529       0.529       0.047
  CSO8                 JUNCTION     0.234    0.234     0  03:50        2.09        2.09       0.008
  CSO9                 JUNCTION     0.040    0.040     0  03:50       0.484       0.484       0.053
  J1                   JUNCTION     0.134    0.134     0  04:00        1.37        1.37      -0.091
  J10                  JUNCTION     0.178    0.404     0  03:50        1.51         3.6      -0.002
  J11                  JUNCTION     0.000    0.233     0  03:50           0        2.09       0.117
  J12                  JUNCTION     0.000    0.530     0  03:51           0        5.08       2.670
  J13                  JUNCTION     0.240    0.240     0  01:25        2.07        2.07      -0.315
  J14                  JUNCTION     0.000    0.166     0  04:25           0        1.54       0.267
  J15                  JUNCTION     0.000    0.556     0  04:00           0         6.4       0.820
  J16                  JUNCTION     0.268    0.268     0  03:55        2.56        2.56      -0.040
  J17                  JUNCTION     0.000    0.108     0  03:45           0       0.477       0.567
  J18                  JUNCTION     0.000    0.091     0  04:00           0       0.873       0.042
  J19                  JUNCTION     0.000    0.271     0  03:41           0        4.84       0.218
  J2                   JUNCTION     0.000    0.036     0  04:53           0       0.635       0.798
  J3                   JUNCTION     0.000    0.228     0  04:18           0        2.51       0.933
  J4                   JUNCTION     0.000    0.043     0  01:26           0       0.529       0.349
  J5                   JUNCTION     0.056    0.098     0  01:40       0.607        1.13       0.000
  J6                   JUNCTION     0.000    0.027     0  05:05           0       0.347       0.374
  J7                   JUNCTION     0.000    0.040     0  03:50           0       0.484       0.374
  J8                   JUNCTION     0.177    0.216     0  03:50        2.23        2.72       0.044
  J9                   JUNCTION     0.000    0.148     0  04:40           0        1.48       0.513
  Out_to_WWTP          OUTFALL      0.000    0.271     0  03:42           0        4.83       0.000
  T1                   STORAGE      0.000    0.524     0  04:02           0        6.34       8.628
  T2                   STORAGE      0.000    0.239     0  01:25           0        2.08      61.211
  T3                   STORAGE      0.000    0.520     0  03:53           0        4.95      31.685
  T4                   STORAGE      0.000    0.098     0  01:41           0        1.13      42.157
  T5                   STORAGE      0.000    0.134     0  04:00           0        1.37      36.700
  T6                   STORAGE      0.000    0.216     0  03:52           0        2.72      37.137
  
  
  **********************
  Node Surcharge Summary
  **********************
  
  No nodes were surcharged.
  
  
  *********************
  Node Flooding Summary
  *********************
  
  Flooding refers to all water that overflows a node, whether it ponds or not.
  --------------------------------------------------------------------------
                                                             Total   Maximum
                                 Maximum   Time of Max       Flood    Ponded
                        Hours       Rate    Occurrence      Volume     Depth
  Node                 Flooded       CMS   days hr:min    10^6 ltr    Meters
  --------------------------------------------------------------------------
  T1                      0.97     0.253      0  04:02       0.563     0.000
  
  
  **********************
  Storage Volume Summary
  **********************
  
  --------------------------------------------------------------------------------------------------
                         Average     Avg  Evap Exfil       Maximum     Max    Time of Max    Maximum
                          Volume    Pcnt  Pcnt  Pcnt        Volume    Pcnt     Occurrence    Outflow
  Storage Unit           1000 m3    Full  Loss  Loss       1000 m3    Full    days hr:min        CMS
  --------------------------------------------------------------------------------------------------
  T1                       0.453      65     0     0         0.700     100       0  03:40      0.271
  T2                       0.488      49     0     0         0.818      82       0  06:01      0.108
  T3                       1.233      47     0     0         2.225      86       0  05:50      0.166
  T4                       0.269      54     0     0         0.457      91       0  05:57      0.027
  T5                       0.253      51     0     0         0.432      86       0  04:52      0.036
  T6                       0.258      43     0     0         0.499      83       0  06:31      0.148
  
  
  ***********************
  Outfall Loading Summary
  ***********************
  
  -----------------------------------------------------------
                         Flow       Avg       Max       Total
                         Freq      Flow      Flow      Volume
  Outfall Node           Pcnt       CMS       CMS    10^6 ltr
  -----------------------------------------------------------
  Out_to_WWTP           98.88     0.202     0.271       4.833
  -----------------------------------------------------------
  System                98.88     0.202     0.271       4.833
  
  
  ********************
  Link Flow Summary
  ********************
  
  -----------------------------------------------------------------------------
                                 Maximum  Time of Max   Maximum    Max/    Max/
                                  |Flow|   Occurrence   |Veloc|    Full    Full
  Link                 Type          CMS  days hr:min     m/sec    Flow   Depth
  -----------------------------------------------------------------------------
  C1                   CONDUIT     0.036     0  04:55      1.04    0.01    0.11
  C10                  CONDUIT     0.216     0  03:52      1.62    0.02    0.55
  C11                  CONDUIT     0.226     0  04:25      1.56    0.01    0.09
  C12                  CONDUIT     0.145     0  04:35      1.24    0.01    0.10
  C13                  CONDUIT     0.520     0  03:53      1.83    0.03    0.57
  C14                  CONDUIT     0.271     0  03:42      2.08    0.02    0.09
  C15                  CONDUIT     0.233     0  03:50      2.51    0.74    0.56
  C16                  CONDUIT     0.229     0  03:51      1.40    0.02    0.10
  C17                  CONDUIT     0.398     0  03:51      2.17    0.02    0.11
  C18                  CONDUIT     0.239     0  01:25      3.92    0.01    0.53
  C19                  CONDUIT     0.105     0  03:45      1.12    0.04    0.18
  C2                   CONDUIT     0.027     0  05:05      0.99    0.03    0.18
  C20                  CONDUIT     0.268     0  03:58      3.28    0.01    0.09
  C21                  CONDUIT     0.091     0  04:00      1.57    0.52    0.41
  C22                  CONDUIT     0.091     0  04:01      1.15    0.04    0.22
  C23                  CONDUIT     0.524     0  04:02      1.24    0.06    0.58
  C3                   CONDUIT     0.167     0  04:18      2.15    0.06    0.16
  C4                   CONDUIT     0.134     0  04:00      3.48    0.03    0.56
  C5                   CONDUIT     0.043     0  01:26      1.20    0.74    0.70
  C6                   CONDUIT     0.043     0  01:42      1.20    0.68    0.50
  C7                   CONDUIT     0.098     0  01:41      1.41    0.02    0.55
  C8                   CONDUIT     0.040     0  03:50      1.13    0.50    0.45
  C9                   CONDUIT     0.039     0  03:52      0.88    0.13    0.28
  V1                   ORIFICE     0.271     0  03:41                      1.00
  V2                   ORIFICE     0.108     0  03:45                      1.00
  V3                   ORIFICE     0.166     0  04:25                      1.00
  V4                   ORIFICE     0.027     0  05:05                      1.00
  V5                   ORIFICE     0.036     0  04:53                      1.00
  V6                   ORIFICE     0.148     0  04:40                      1.00
  
  
  ***************************
  Flow Classification Summary
  ***************************
  
  -------------------------------------------------------------------------------------
                      Adjusted    ---------- Fraction of Time in Flow Class ---------- 
                       /Actual         Up    Down  Sub   Sup   Up    Down  Norm  Inlet 
  Conduit               Length    Dry  Dry   Dry   Crit  Crit  Crit  Crit  Ltd   Ctrl  
  -------------------------------------------------------------------------------------
  C1                      1.00   0.00  0.00  0.00  0.38  0.62  0.00  0.00  0.94  0.00
  C10                     1.00   0.00  0.00  0.00  0.96  0.04  0.00  0.00  0.97  0.00
  C11                     1.00   0.00  0.00  0.00  0.48  0.52  0.00  0.00  1.00  0.00
  C12                     1.00   0.00  0.00  0.00  0.94  0.05  0.00  0.00  1.00  0.00
  C13                     1.00   0.00  0.00  0.00  0.89  0.11  0.00  0.00  0.60  0.00
  C14                     1.00   0.01  0.01  0.00  0.01  0.98  0.00  0.00  0.27  0.00
  C15                     1.00   0.00  0.00  0.00  0.00  1.00  0.00  0.00  0.00  0.00
  C16                     1.00   0.00  0.00  0.00  0.19  0.81  0.00  0.00  0.13  0.00
  C17                     1.00   0.00  0.00  0.00  0.24  0.76  0.00  0.00  0.96  0.00
  C18                     1.00   0.00  0.00  0.00  0.92  0.08  0.00  0.00  0.96  0.00
  C19                     1.00   0.00  0.00  0.00  0.96  0.03  0.00  0.00  1.00  0.00
  C2                      1.00   0.00  0.00  0.00  0.74  0.26  0.00  0.00  0.96  0.00
  C20                     1.00   0.00  0.00  0.00  0.23  0.77  0.00  0.00  0.98  0.00
  C21                     1.00   0.00  0.00  0.00  0.00  1.00  0.00  0.00  0.00  0.00
  C22                     1.00   0.00  0.00  0.00  0.90  0.10  0.00  0.00  1.00  0.00
  C23                     1.00   0.00  0.00  0.00  0.90  0.10  0.00  0.00  0.94  0.00
  C3                      1.00   0.00  0.01  0.00  0.05  0.94  0.00  0.00  0.54  0.00
  C4                      1.00   0.00  0.00  0.00  0.96  0.04  0.00  0.00  0.98  0.00
  C5                      1.00   0.00  0.00  0.00  0.86  0.14  0.00  0.00  0.98  0.00
  C6                      1.00   0.00  0.00  0.00  0.01  0.99  0.00  0.00  0.00  0.00
  C7                      1.00   0.00  0.00  0.00  0.93  0.07  0.00  0.00  0.96  0.00
  C8                      1.00   0.00  0.00  0.00  0.05  0.95  0.00  0.00  0.00  0.00
  C9                      1.00   0.00  0.00  0.00  1.00  0.00  0.00  0.00  1.00  0.00
  
  
  *************************
  Conduit Surcharge Summary
  *************************
  
  ----------------------------------------------------------------------------
                                                           Hours        Hours 
                         --------- Hours Full --------   Above Full   Capacity
  Conduit                Both Ends  Upstream  Dnstream   Normal Flow   Limited
  ----------------------------------------------------------------------------
  C10                         0.01      0.01      4.12      0.01         0.01
  C13                         0.01      0.01      3.96      0.01         0.01
  C18                         0.01      0.01      4.31      0.01         0.01
  C23                         0.01      0.01      5.17      0.01         0.01
  C4                          0.01      0.01      5.21      0.01         0.01
  C7                          0.01      0.01      5.17      0.01         0.01
  

  Analysis begun on:  Sun Jul 17 20:43:49 2022
  Analysis ended on:  Sun Jul 17 20:43:50 2022
  Total elapsed time: 00:00:01