
  EPA STORM WATER MANAGEMENT MODEL - VERSION 5.1 (Build 5.3.0.dev0)
  --------------------------------------------------------------

  
  *********************************************************
  NOTE: The summary statistics displayed in this report are
  based on results found at every computational time step,  
  not just on results from each reporting time step.
  *********************************************************
  
  ****************
  Analysis Options
  ****************
  Flow Units ............... CMS
  Process Models:
    Rainfall/Runoff ........ YES
    RDII ................... NO
    Snowmelt ............... NO
    Groundwater ............ NO
    Flow Routing ........... YES
    Ponding Allowed ........ NO
    Water Quality .......... NO
  Infiltration Method ...... HORTON
  Flow Routing Method ...... DYNWAVE
  Surcharge Method ......... EXTRAN
  Starting Date ............ 09/25/2008 13:30:00
  Ending Date .............. 09/25/2008 21:30:00
  Antecedent Dry Days ...... 0.0
  Report Time Step ......... 00:05:00
  Wet Time Step ............ 00:05:00
  Dry Time Step ............ 01:00:00
  Routing Time Step ........ 30.00 sec
  Variable Time Step ....... YES
  Maximum Trials ........... 8
  Number of Threads ........ 1
  Head Tolerance ........... 0.001500 m
  
  
  **************************        Volume         Depth
  Runoff Quantity Continuity     hectare-m            mm
  **************************     ---------       -------
  Total Precipitation ......         1.852        10.279
  Evaporation Loss .........         0.000         0.000
  Infiltration Loss ........         0.000         0.000
  Surface Runoff ...........         1.841        10.218
  Final Storage ............         0.026         0.144
  Continuity Error (%) .....        -0.809
  
  
  **************************        Volume        Volume
  Flow Routing Continuity        hectare-m      10^6 ltr
  **************************     ---------     ---------
  Dry Weather Inflow .......         0.295         2.954
  Wet Weather Inflow .......         1.841        18.406
  Groundwater Inflow .......         0.000         0.000
  RDII Inflow ..............         0.000         0.000
  External Inflow ..........         0.000         0.000
  External Outflow .........         0.689         6.888
  Flooding Loss ............         0.651         6.514
  Evaporation Loss .........         0.000         0.000
  Exfiltration Loss ........         0.000         0.000
  Initial Stored Volume ....         0.000         0.000
  Final Stored Volume ......         0.612         6.124
  Continuity Error (%) .....         8.580
  
  
  *************************
  Highest Continuity Errors
  *************************
  Node T2 (26.40%)
  Node T3 (19.70%)
  Node T4 (19.25%)
  Node T5 (16.07%)
  Node T6 (13.63%)
  
  
  ***************************
  Time-Step Critical Elements
  ***************************
  Link C15 (27.28%)
  Link C21 (19.31%)
  Link C8 (3.63%)
  
  
  ********************************
  Highest Flow Instability Indexes
  ********************************
  Link C21 (3)
  Link C20 (2)
  Link C4 (2)
  Link C15 (2)
  Link C23 (2)
  
  
  *************************
  Routing Time Step Summary
  *************************
  Minimum Time Step           :     0.03 sec
  Average Time Step           :    25.30 sec
  Maximum Time Step           :    30.00 sec
  Percent in Steady State     :     6.61
  Average Iterations per Step :     2.57
  Percent Not Converging      :     3.76
  
  
  ***************************
  Subcatchment Runoff Summary
  ***************************
  
  ------------------------------------------------------------------------------------------------------------------------------
                            Total      Total      Total      Total     Imperv       Perv      Total       Total     Peak  Runoff
                           Precip      Runon       Evap      Infil     Runoff     Runoff     Runoff      Runoff   Runoff   Coeff
  Subcatchment                 mm         mm         mm         mm         mm         mm         mm    10^6 ltr      CMS
  ------------------------------------------------------------------------------------------------------------------------------
  SC01                      13.03       0.00       0.00       0.00      13.01       0.00      13.01        4.29     0.85   0.998
  SC010                     13.03       0.00       0.00       0.00      12.95       0.00      12.95        1.52     0.29   0.994
  SC02                      12.04       0.00       0.00       0.00      12.11       0.00      12.11        2.75     2.17   1.006
  SC03                       5.49       0.00       0.00       0.00       5.49       0.00       5.49        0.99     0.32   1.000
  SC04                      12.04       0.00       0.00       0.00      11.94       0.00      11.94        0.82     0.41   0.991
  SC05                      13.03       0.00       0.00       0.00      12.99       0.00      12.99        2.03     0.39   0.997
  SC06                      10.12       0.00       0.00       0.00       9.94       0.00       9.94        3.23     1.25   0.982
  SC07                      12.04       0.00       0.00       0.00      11.94       0.00      11.94        0.57     0.28   0.992
  SC08                       5.49       0.00       0.00       0.00       5.39       0.00       5.39        1.51     0.36   0.982
  SC09                      10.12       0.00       0.00       0.00      10.07       0.00      10.07        0.69     0.35   0.995
  
  
  ******************
  Node Depth Summary
  ******************
  
  ---------------------------------------------------------------------------------
                                 Average  Maximum  Maximum  Time of Max    Reported
                                   Depth    Depth      HGL   Occurrence   Max Depth
  Node                 Type       Meters   Meters   Meters  days hr:min      Meters
  ---------------------------------------------------------------------------------
  CSO10                JUNCTION     0.25     1.00    31.00     0  00:41        1.00
  CSO7                 JUNCTION     0.22     1.20    35.20     0  01:30        1.20
  CSO8                 JUNCTION     0.14     0.97    32.97     0  01:55        0.97
  CSO9                 JUNCTION     0.29     2.00    42.00     0  01:26        2.00
  J1                   JUNCTION     0.09     0.21    34.21     0  01:15        0.21
  J10                  JUNCTION     0.10     0.25    29.25     0  01:55        0.25
  J11                  JUNCTION     0.10     0.26    31.26     0  01:56        0.26
  J12                  JUNCTION     0.14     0.28    26.28     0  01:58        0.27
  J13                  JUNCTION     0.08     0.38    29.38     0  01:35        0.36
  J14                  JUNCTION     0.11     0.13    20.13     0  06:37        0.13
  J15                  JUNCTION     0.21     0.36    15.36     0  01:16        0.36
  J16                  JUNCTION     0.09     0.23    30.23     0  01:11        0.23
  J17                  JUNCTION     0.06     0.08    20.08     0  02:41        0.08
  J18                  JUNCTION     0.08     0.16    29.16     0  01:23        0.16
  J19                  JUNCTION     0.15     0.17     8.17     0  01:15        0.17
  J2                   JUNCTION     0.07     0.08    25.08     0  05:01        0.08
  J3                   JUNCTION     0.11     0.13    18.13     0  05:01        0.13
  J4                   JUNCTION     0.17     0.85    33.85     0  01:32        0.73
  J5                   JUNCTION     0.07     0.23    32.23     0  01:36        0.23
  J6                   JUNCTION     0.06     0.07    25.07     0  02:57        0.07
  J7                   JUNCTION     0.09     0.23    39.23     0  01:52        0.23
  J8                   JUNCTION     0.12     0.38    36.38     0  01:35        0.38
  J9                   JUNCTION     0.09     0.11    29.11     0  03:06        0.11
  Out_to_WWTP          OUTFALL      0.15     0.17     6.17     0  05:38        0.17
  T1                   STORAGE      4.21     5.00    15.00     0  01:14        5.00
  T2                   STORAGE      3.75     5.00    26.00     0  01:47        5.00
  T3                   STORAGE      2.12     2.92    24.92     0  06:26        2.92
  T4                   STORAGE      3.56     5.00    32.00     0  02:14        5.00
  T5                   STORAGE      4.13     5.00    32.00     0  01:31        5.00
  T6                   STORAGE      3.64     5.00    36.00     0  01:46        5.00
  
  
  *******************
  Node Inflow Summary
  *******************
  
  -------------------------------------------------------------------------------------------------
                                  Maximum  Maximum                  Lateral       Total        Flow
                                  Lateral    Total  Time of Max      Inflow      Inflow     Balance
                                   Inflow   Inflow   Occurrence      Volume      Volume       Error
  Node                 Type           CMS      CMS  days hr:min    10^6 ltr    10^6 ltr     Percent
  -------------------------------------------------------------------------------------------------
  CSO10                JUNCTION     0.290    0.290     0  01:15        1.63        1.63      -0.181
  CSO7                 JUNCTION     0.292    0.292     0  01:35       0.788       0.788       0.021
  CSO8                 JUNCTION     0.375    0.375     0  01:55        1.68        1.68       0.043
  CSO9                 JUNCTION     0.355    0.355     0  01:35       0.844       0.844      -0.033
  J1                   JUNCTION     0.412    0.412     0  01:15        2.45        2.46      -0.340
  J10                  JUNCTION     0.327    0.666     0  01:55        1.28        2.95       0.173
  J11                  JUNCTION     0.000    0.375     0  01:55           0        1.68       0.274
  J12                  JUNCTION     0.000    0.731     0  01:56           0        4.72       0.507
  J13                  JUNCTION     2.181    2.181     0  01:35        3.11        3.11      -0.350
  J14                  JUNCTION     0.000    0.094     0  06:26           0        2.29       0.260
  J15                  JUNCTION     0.000    1.174     0  01:15           0          11       0.259
  J16                  JUNCTION     0.864    0.864     0  01:15        4.71        4.72      -0.377
  J17                  JUNCTION     0.000    0.033     0  01:47           0       0.802       0.848
  J18                  JUNCTION     0.000    0.202     0  01:23           0        1.55      -0.523
  J19                  JUNCTION     0.000    0.271     0  01:14           0         6.9       0.169
  J2                   JUNCTION     0.000    0.039     0  01:31           0           1       0.512
  J3                   JUNCTION     0.000    0.161     0  04:59           0        3.93       0.874
  J4                   JUNCTION     0.000    0.083     0  01:30           0       0.592      -0.087
  J5                   JUNCTION     0.416    0.491     0  01:35       0.921        1.51      -0.159
  J6                   JUNCTION     0.000    0.028     0  02:15           0       0.661       0.587
  J7                   JUNCTION     0.000    0.127     0  01:52           0       0.643      -0.017
  J8                   JUNCTION     1.276    1.401     0  01:35        3.95         4.6      -0.200
  J9                   JUNCTION     0.000    0.075     0  01:46           0        1.79       0.980
  Out_to_WWTP          OUTFALL      0.000    0.271     0  01:16           0        6.89       0.000
  T1                   STORAGE      0.000    1.143     0  01:16           0          11       6.362
  T2                   STORAGE      0.000    2.131     0  01:36           0        3.12      35.864
  T3                   STORAGE      0.000    0.696     0  01:58           0        4.69      24.530
  T4                   STORAGE      0.000    0.487     0  01:36           0        1.52      23.842
  T5                   STORAGE      0.000    0.412     0  01:15           0        2.46      19.145
  T6                   STORAGE      0.000    1.387     0  01:36           0        4.61      15.782
  
  
  **********************
  Node Surcharge Summary
  **********************
  
  Surcharging occurs when water rises above the top of the highest conduit.
  ---------------------------------------------------------------------
                                               Max. Height   Min. Depth
                                   Hours       Above Crown    Below Rim
  Node                 Type      Surcharged         Meters       Meters
  ---------------------------------------------------------------------
  CSO10                JUNCTION        0.74          0.560        0.000
  CSO7                 JUNCTION        0.68          0.945        0.000
  CSO8                 JUNCTION        0.14          0.518        1.029
  CSO9                 JUNCTION        0.78          1.682        0.000
  J4                   JUNCTION        0.67          0.554        1.146
  
  
  *********************
  Node Flooding Summary
  *********************
  
  Flooding refers to all water that overflows a node, whether it ponds or not.
  --------------------------------------------------------------------------
                                                             Total   Maximum
                                 Maximum   Time of Max       Flood    Ponded
                        Hours       Rate    Occurrence      Volume     Depth
  Node                 Flooded       CMS   days hr:min    10^6 ltr    Meters
  --------------------------------------------------------------------------
  CSO10                   0.59     0.087      0  01:15       0.079     0.000
  CSO7                    0.57     0.217      0  01:35       0.196     0.000
  CSO9                    0.45     0.229      0  01:30       0.201     0.000
  T1                      3.99     0.872      0  01:16       2.858     0.000
  T2                      2.30     0.677      0  01:47       0.619     0.000
  T4                      1.92     0.095      0  02:14       0.161     0.000
  T5                      3.03     0.247      0  01:31       0.662     0.000
  T6                      2.55     0.951      0  01:46       1.737     0.000
  
  
  **********************
  Storage Volume Summary
  **********************
  
  --------------------------------------------------------------------------------------------------
                         Average     Avg  Evap Exfil       Maximum     Max    Time of Max    Maximum
                          Volume    Pcnt  Pcnt  Pcnt        Volume    Pcnt     Occurrence    Outflow
  Storage Unit           1000 m3    Full  Loss  Loss       1000 m3    Full    days hr:min        CMS
  --------------------------------------------------------------------------------------------------
  T1                       0.589      84     0     0         0.700     100       0  01:14      0.271
  T2                       0.751      75     0     0         1.000     100       0  01:47      0.033
  T3                       1.105      42     0     0         1.518      58       0  06:26      0.094
  T4                       0.356      71     0     0         0.500     100       0  02:14      0.028
  T5                       0.413      83     0     0         0.500     100       0  01:31      0.039
  T6                       0.436      73     0     0         0.600     100       0  01:46      0.075
  
  
  ***********************
  Outfall Loading Summary
  ***********************
  
  -----------------------------------------------------------
                         Flow       Avg       Max       Total
                         Freq      Flow      Flow      Volume
  Outfall Node           Pcnt       CMS       CMS    10^6 ltr
  -----------------------------------------------------------
  Out_to_WWTP           99.20     0.238     0.271       6.888
  -----------------------------------------------------------
  System                99.20     0.238     0.271       6.888
  
  
  ********************
  Link Flow Summary
  ********************
  
  -----------------------------------------------------------------------------
                                 Maximum  Time of Max   Maximum    Max/    Max/
                                  |Flow|   Occurrence   |Veloc|    Full    Full
  Link                 Type          CMS  days hr:min     m/sec    Flow   Depth
  -----------------------------------------------------------------------------
  C1                   CONDUIT     0.039     0  02:15      1.07    0.01    0.10
  C10                  CONDUIT     1.387     0  01:36      1.81    0.14    0.63
  C11                  CONDUIT     0.161     0  05:01      1.60    0.01    0.11
  C12                  CONDUIT     0.075     0  03:03      1.12    0.01    0.10
  C13                  CONDUIT     0.696     0  01:58      2.73    0.04    0.56
  C14                  CONDUIT     0.271     0  01:16      2.08    0.02    0.09
  C15                  CONDUIT     0.375     0  01:55      2.77    1.19    0.78
  C16                  CONDUIT     0.364     0  01:56      1.59    0.03    0.13
  C17                  CONDUIT     0.656     0  01:56      2.84    0.03    0.13
  C18                  CONDUIT     2.131     0  01:36      3.17    0.08    0.60
  C19                  CONDUIT     0.033     0  02:41      0.63    0.01    0.20
  C2                   CONDUIT     0.028     0  02:55      0.93    0.03    0.17
  C20                  CONDUIT     0.864     0  01:11      3.34    0.03    0.15
  C21                  CONDUIT     0.202     0  01:23      1.84    1.16    0.69
  C22                  CONDUIT     0.202     0  01:24      1.61    0.09    0.33
  C23                  CONDUIT     1.143     0  01:16      1.94    0.13    0.62
  C3                   CONDUIT     0.094     0  06:27      1.60    0.04    0.13
  C4                   CONDUIT     0.412     0  01:15      3.10    0.10    0.61
  C5                   CONDUIT     0.083     0  01:30      1.62    1.41    1.00
  C6                   CONDUIT     0.075     0  01:35      1.29    1.19    0.89
  C7                   CONDUIT     0.487     0  01:36      1.56    0.12    0.62
  C8                   CONDUIT     0.127     0  01:52      1.90    1.60    0.86
  C9                   CONDUIT     0.127     0  01:52      1.24    0.43    0.61
  V1                   ORIFICE     0.271     0  01:14                      1.00
  V2                   ORIFICE     0.033     0  01:47                      0.24
  V3                   ORIFICE     0.094     0  06:26                      0.65
  V4                   ORIFICE     0.028     0  02:15                      0.35
  V5                   ORIFICE     0.039     0  01:31                      1.00
  V6                   ORIFICE     0.075     0  01:46                      0.43
  
  
  ***************************
  Flow Classification Summary
  ***************************
  
  -------------------------------------------------------------------------------------
                      Adjusted    ---------- Fraction of Time in Flow Class ---------- 
                       /Actual         Up    Down  Sub   Sup   Up    Down  Norm  Inlet 
  Conduit               Length    Dry  Dry   Dry   Crit  Crit  Crit  Crit  Ltd   Ctrl  
  -------------------------------------------------------------------------------------
  C1                      1.00   0.00  0.00  0.00  0.04  0.96  0.00  0.00  0.97  0.00
  C10                     1.00   0.00  0.00  0.00  0.96  0.04  0.00  0.00  0.98  0.00
  C11                     1.00   0.00  0.00  0.00  0.37  0.63  0.00  0.00  1.00  0.00
  C12                     1.00   0.00  0.00  0.00  0.42  0.58  0.00  0.00  0.69  0.00
  C13                     1.00   0.00  0.00  0.00  0.94  0.06  0.00  0.00  0.95  0.00
  C14                     1.00   0.01  0.00  0.00  0.01  0.99  0.00  0.00  0.22  0.00
  C15                     1.00   0.00  0.00  0.00  0.00  1.00  0.00  0.00  0.01  0.00
  C16                     1.00   0.00  0.00  0.00  0.40  0.60  0.00  0.00  0.48  0.00
  C17                     1.00   0.00  0.00  0.00  0.37  0.63  0.00  0.00  0.94  0.00
  C18                     1.00   0.00  0.00  0.00  0.93  0.07  0.00  0.00  0.98  0.00
  C19                     1.00   0.00  0.00  0.00  1.00  0.00  0.00  0.00  1.00  0.00
  C2                      1.00   0.00  0.00  0.00  0.22  0.78  0.00  0.00  0.98  0.00
  C20                     1.00   0.00  0.00  0.00  0.47  0.53  0.00  0.00  0.98  0.00
  C21                     1.00   0.00  0.00  0.00  0.01  0.99  0.00  0.00  0.00  0.00
  C22                     1.00   0.00  0.00  0.00  0.72  0.28  0.00  0.00  1.00  0.00
  C23                     1.00   0.00  0.00  0.00  0.91  0.09  0.00  0.00  0.95  0.00
  C3                      1.00   0.00  0.00  0.00  0.02  0.97  0.00  0.00  0.12  0.00
  C4                      1.00   0.00  0.00  0.00  0.96  0.04  0.00  0.00  0.98  0.00
  C5                      1.00   0.00  0.00  0.00  0.91  0.09  0.00  0.00  0.89  0.00
  C6                      1.00   0.00  0.00  0.00  0.14  0.86  0.00  0.00  0.00  0.00
  C7                      1.00   0.00  0.00  0.00  0.95  0.05  0.00  0.00  0.97  0.00
  C8                      1.00   0.00  0.00  0.00  0.15  0.85  0.00  0.00  0.00  0.00
  C9                      1.00   0.00  0.00  0.00  1.00  0.00  0.00  0.00  1.00  0.00
  
  
  *************************
  Conduit Surcharge Summary
  *************************
  
  ----------------------------------------------------------------------------
                                                           Hours        Hours 
                         --------- Hours Full --------   Above Full   Capacity
  Conduit                Both Ends  Upstream  Dnstream   Normal Flow   Limited
  ----------------------------------------------------------------------------
  C10                         0.01      0.01      6.46      0.01         0.01
  C13                         0.01      0.01      5.90      0.01         0.01
  C15                         0.01      0.14      0.01      0.16         0.01
  C18                         0.01      0.01      6.43      0.01         0.01
  C21                         0.01      0.73      0.01      0.71         0.01
  C23                         0.01      0.01      7.20      0.01         0.01
  C4                          0.01      0.01      7.25      0.01         0.01
  C5                          0.66      0.68      0.75      0.69         0.63
  C6                          0.01      0.67      0.01      0.59         0.01
  C7                          0.01      0.01      6.57      0.01         0.01
  C8                          0.01      0.78      0.01      0.79         0.01
  

  Analysis begun on:  Sun Jul 17 21:03:14 2022
  Analysis ended on:  Sun Jul 17 21:03:14 2022
  Total elapsed time: < 1 sec