
  EPA STORM WATER MANAGEMENT MODEL - VERSION 5.1 (Build 5.3.0.dev0)
  --------------------------------------------------------------

  
  *********************************************************
  NOTE: The summary statistics displayed in this report are
  based on results found at every computational time step,  
  not just on results from each reporting time step.
  *********************************************************
  
  ****************
  Analysis Options
  ****************
  Flow Units ............... CMS
  Process Models:
    Rainfall/Runoff ........ YES
    RDII ................... NO
    Snowmelt ............... NO
    Groundwater ............ NO
    Flow Routing ........... YES
    Ponding Allowed ........ NO
    Water Quality .......... NO
  Infiltration Method ...... HORTON
  Flow Routing Method ...... DYNWAVE
  Surcharge Method ......... EXTRAN
  Starting Date ............ 07/27/2007 22:30:00
  Ending Date .............. 07/28/2007 10:55:00
  Antecedent Dry Days ...... 0.0
  Report Time Step ......... 00:05:00
  Wet Time Step ............ 00:05:00
  Dry Time Step ............ 01:00:00
  Routing Time Step ........ 30.00 sec
  Variable Time Step ....... YES
  Maximum Trials ........... 8
  Number of Threads ........ 1
  Head Tolerance ........... 0.001500 m
  
  
  **************************        Volume         Depth
  Runoff Quantity Continuity     hectare-m            mm
  **************************     ---------       -------
  Total Precipitation ......         0.938         5.203
  Evaporation Loss .........         0.000         0.000
  Infiltration Loss ........         0.000         0.000
  Surface Runoff ...........         0.902         5.008
  Final Storage ............         0.036         0.202
  Continuity Error (%) .....        -0.131
  
  
  **************************        Volume        Volume
  Flow Routing Continuity        hectare-m      10^6 ltr
  **************************     ---------     ---------
  Dry Weather Inflow .......         0.296         2.956
  Wet Weather Inflow .......         0.902         9.017
  Groundwater Inflow .......         0.000         0.000
  RDII Inflow ..............         0.000         0.000
  External Inflow ..........         0.000         0.000
  External Outflow .........         0.582         5.817
  Flooding Loss ............         0.000         0.000
  Evaporation Loss .........         0.000         0.000
  Exfiltration Loss ........         0.000         0.000
  Initial Stored Volume ....         0.000         0.000
  Final Stored Volume ......         0.508         5.081
  Continuity Error (%) .....         8.989
  
  
  *************************
  Highest Continuity Errors
  *************************
  Node T2 (29.91%)
  Node T6 (24.79%)
  Node T4 (20.04%)
  Node T5 (19.67%)
  Node T3 (17.70%)
  
  
  ***************************
  Time-Step Critical Elements
  ***************************
  Link C15 (27.12%)
  
  
  ********************************
  Highest Flow Instability Indexes
  ********************************
  Link C15 (3)
  Link C20 (2)
  Link C18 (2)
  Link C17 (2)
  Link C4 (1)
  
  
  *************************
  Routing Time Step Summary
  *************************
  Minimum Time Step           :     0.15 sec
  Average Time Step           :    28.90 sec
  Maximum Time Step           :    30.00 sec
  Percent in Steady State     :     3.29
  Average Iterations per Step :     2.00
  Percent Not Converging      :     0.00
  
  
  ***************************
  Subcatchment Runoff Summary
  ***************************
  
  ------------------------------------------------------------------------------------------------------------------------------
                            Total      Total      Total      Total     Imperv       Perv      Total       Total     Peak  Runoff
                           Precip      Runon       Evap      Infil     Runoff     Runoff     Runoff      Runoff   Runoff   Coeff
  Subcatchment                 mm         mm         mm         mm         mm         mm         mm    10^6 ltr      CMS
  ------------------------------------------------------------------------------------------------------------------------------
  SC01                       5.14       0.00       0.00       0.00       5.02       0.00       5.02        1.66     0.14   0.977
  SC010                      5.14       0.00       0.00       0.00       4.97       0.00       4.97        0.58     0.05   0.967
  SC02                       5.29       0.00       0.00       0.00       5.15       0.00       5.15        1.17     0.09   0.974
  SC03                       4.75       0.00       0.00       0.00       4.66       0.00       4.66        0.84     0.07   0.982
  SC04                       5.29       0.00       0.00       0.00       4.98       0.00       4.98        0.34     0.02   0.942
  SC05                       5.14       0.00       0.00       0.00       5.01       0.00       5.01        0.78     0.07   0.974
  SC06                       5.75       0.00       0.00       0.00       5.37       0.00       5.37        1.75     0.17   0.933
  SC07                       5.29       0.00       0.00       0.00       4.98       0.00       4.98        0.24     0.02   0.942
  SC08                       4.75       0.00       0.00       0.00       4.58       0.00       4.58        1.28     0.09   0.964
  SC09                       5.75       0.00       0.00       0.00       5.53       0.00       5.53        0.38     0.04   0.962
  
  
  ******************
  Node Depth Summary
  ******************
  
  ---------------------------------------------------------------------------------
                                 Average  Maximum  Maximum  Time of Max    Reported
                                   Depth    Depth      HGL   Occurrence   Max Depth
  Node                 Type       Meters   Meters   Meters  days hr:min      Meters
  ---------------------------------------------------------------------------------
  CSO10                JUNCTION     0.09     0.18    30.18     0  09:25        0.18
  CSO7                 JUNCTION     0.07     0.11    34.11     0  10:00        0.11
  CSO8                 JUNCTION     0.10     0.19    32.19     0  09:30        0.18
  CSO9                 JUNCTION     0.08     0.19    40.19     0  09:36        0.19
  J1                   JUNCTION     0.06     0.10    34.10     0  09:22        0.10
  J10                  JUNCTION     0.07     0.13    29.13     0  09:36        0.13
  J11                  JUNCTION     0.08     0.14    31.14     0  09:36        0.14
  J12                  JUNCTION     0.10     0.16    26.16     0  09:39        0.16
  J13                  JUNCTION     0.05     0.09    29.09     0  09:26        0.09
  J14                  JUNCTION     0.09     0.13    20.13     0  12:25        0.13
  J15                  JUNCTION     0.13     0.20    15.20     0  09:27        0.19
  J16                  JUNCTION     0.05     0.10    30.10     0  09:21        0.10
  J17                  JUNCTION     0.05     0.06    20.06     0  11:50        0.06
  J18                  JUNCTION     0.05     0.08    29.08     0  09:25        0.08
  J19                  JUNCTION     0.12     0.16     8.16     0  10:34        0.16
  J2                   JUNCTION     0.05     0.07    25.07     0  10:55        0.07
  J3                   JUNCTION     0.09     0.12    18.12     0  12:25        0.12
  J4                   JUNCTION     0.08     0.14    33.14     0  10:05        0.14
  J5                   JUNCTION     0.05     0.08    32.08     0  10:04        0.08
  J6                   JUNCTION     0.04     0.06    25.06     0  12:22        0.06
  J7                   JUNCTION     0.07     0.14    39.14     0  09:40        0.14
  J8                   JUNCTION     0.08     0.16    36.16     0  09:40        0.16
  J9                   JUNCTION     0.08     0.11    29.11     0  11:23        0.11
  Out_to_WWTP          OUTFALL      0.12     0.16     6.16     0  10:34        0.16
  T1                   STORAGE      1.46     3.42    13.42     0  10:34        3.42
  T2                   STORAGE      1.05     2.25    23.25     0  11:47        2.25
  T3                   STORAGE      1.05     2.43    24.43     0  12:25        2.43
  T4                   STORAGE      0.93     2.29    29.29     0  12:20        2.29
  T5                   STORAGE      1.06     2.43    29.43     0  10:53        2.43
  T6                   STORAGE      1.69     4.40    35.40     0  11:20        4.40
  
  
  *******************
  Node Inflow Summary
  *******************
  
  -------------------------------------------------------------------------------------------------
                                  Maximum  Maximum                  Lateral       Total        Flow
                                  Lateral    Total  Time of Max      Inflow      Inflow     Balance
                                   Inflow   Inflow   Occurrence      Volume      Volume       Error
  Node                 Type           CMS      CMS  days hr:min    10^6 ltr    10^6 ltr     Percent
  -------------------------------------------------------------------------------------------------
  CSO10                JUNCTION     0.050    0.050     0  09:25       0.689        0.69       0.068
  CSO7                 JUNCTION     0.024    0.024     0  10:00       0.456       0.457       0.156
  CSO8                 JUNCTION     0.103    0.103     0  09:35        1.46        1.47       0.028
  CSO9                 JUNCTION     0.048    0.048     0  09:35        0.53        0.53       0.110
  J1                   JUNCTION     0.082    0.082     0  09:20        1.21        1.21       0.133
  J10                  JUNCTION     0.083    0.180     0  09:35        1.13        2.59       0.216
  J11                  JUNCTION     0.000    0.103     0  09:35           0        1.47       0.359
  J12                  JUNCTION     0.000    0.236     0  09:36           0         4.3       0.689
  J13                  JUNCTION     0.105    0.105     0  09:25        1.53        1.53      -0.031
  J14                  JUNCTION     0.000    0.086     0  12:25           0        2.25       0.257
  J15                  JUNCTION     0.000    0.334     0  09:25           0         6.8       1.026
  J16                  JUNCTION     0.158    0.158     0  09:20        2.07        2.08       0.075
  J17                  JUNCTION     0.000    0.022     0  11:48           0       0.623       0.760
  J18                  JUNCTION     0.000    0.050     0  09:25           0       0.689       0.191
  J19                  JUNCTION     0.000    0.223     0  10:34           0        5.83       0.176
  J2                   JUNCTION     0.000    0.027     0  10:53           0       0.734       0.577
  J3                   JUNCTION     0.000    0.132     0  12:25           0        3.45       0.871
  J4                   JUNCTION     0.000    0.024     0  10:01           0       0.456       0.967
  J5                   JUNCTION     0.026    0.048     0  10:02        0.44       0.892       0.279
  J6                   JUNCTION     0.000    0.019     0  12:20           0       0.483       0.662
  J7                   JUNCTION     0.000    0.048     0  09:36           0        0.53       0.621
  J8                   JUNCTION     0.200    0.248     0  09:40        2.46        2.99       0.293
  J9                   JUNCTION     0.000    0.071     0  11:21           0        1.73       0.959
  Out_to_WWTP          OUTFALL      0.000    0.223     0  10:34           0        5.82       0.000
  T1                   STORAGE      0.000    0.328     0  09:27           0        6.73       7.824
  T2                   STORAGE      0.000    0.103     0  09:26           0        1.53      42.677
  T3                   STORAGE      0.000    0.230     0  09:40           0        4.27      21.507
  T4                   STORAGE      0.000    0.048     0  10:05           0        0.89      25.065
  T5                   STORAGE      0.000    0.082     0  09:22           0        1.21      24.481
  T6                   STORAGE      0.000    0.247     0  09:40           0        2.98      32.953
  
  
  **********************
  Node Surcharge Summary
  **********************
  
  No nodes were surcharged.
  
  
  *********************
  Node Flooding Summary
  *********************
  
  No nodes were flooded.
  
  
  **********************
  Storage Volume Summary
  **********************
  
  --------------------------------------------------------------------------------------------------
                         Average     Avg  Evap Exfil       Maximum     Max    Time of Max    Maximum
                          Volume    Pcnt  Pcnt  Pcnt        Volume    Pcnt     Occurrence    Outflow
  Storage Unit           1000 m3    Full  Loss  Loss       1000 m3    Full    days hr:min        CMS
  --------------------------------------------------------------------------------------------------
  T1                       0.205      29     0     0         0.479      68       0  10:34      0.223
  T2                       0.210      21     0     0         0.449      45       0  11:47      0.022
  T3                       0.546      21     0     0         1.265      49       0  12:25      0.086
  T4                       0.093      19     0     0         0.229      46       0  12:20      0.019
  T5                       0.106      21     0     0         0.243      49       0  10:53      0.027
  T6                       0.203      34     0     0         0.528      88       0  11:20      0.071
  
  
  ***********************
  Outfall Loading Summary
  ***********************
  
  -----------------------------------------------------------
                         Flow       Avg       Max       Total
                         Freq      Flow      Flow      Volume
  Outfall Node           Pcnt       CMS       CMS    10^6 ltr
  -----------------------------------------------------------
  Out_to_WWTP           98.90     0.133     0.223       5.817
  -----------------------------------------------------------
  System                98.90     0.133     0.223       5.817
  
  
  ********************
  Link Flow Summary
  ********************
  
  -----------------------------------------------------------------------------
                                 Maximum  Time of Max   Maximum    Max/    Max/
                                  |Flow|   Occurrence   |Veloc|    Full    Full
  Link                 Type          CMS  days hr:min     m/sec    Flow   Depth
  -----------------------------------------------------------------------------
  C1                   CONDUIT     0.027     0  10:55      0.79    0.01    0.09
  C10                  CONDUIT     0.247     0  09:40      2.18    0.03    0.55
  C11                  CONDUIT     0.132     0  12:25      1.48    0.01    0.08
  C12                  CONDUIT     0.071     0  11:23      1.05    0.01    0.07
  C13                  CONDUIT     0.230     0  09:40      1.28    0.01    0.54
  C14                  CONDUIT     0.223     0  10:34      1.96    0.01    0.08
  C15                  CONDUIT     0.103     0  09:35      2.01    0.33    0.36
  C16                  CONDUIT     0.101     0  09:36      1.08    0.01    0.07
  C17                  CONDUIT     0.179     0  09:36      1.73    0.01    0.07
  C18                  CONDUIT     0.103     0  09:26      1.40    0.00    0.52
  C19                  CONDUIT     0.022     0  11:50      0.50    0.01    0.13
  C2                   CONDUIT     0.019     0  12:22      0.74    0.02    0.15
  C20                  CONDUIT     0.157     0  09:21      2.77    0.00    0.07
  C21                  CONDUIT     0.050     0  09:25      1.54    0.29    0.30
  C22                  CONDUIT     0.050     0  09:26      0.86    0.02    0.17
  C23                  CONDUIT     0.328     0  09:27      1.23    0.04    0.57
  C3                   CONDUIT     0.086     0  12:25      1.59    0.03    0.12
  C4                   CONDUIT     0.082     0  09:22      6.63    0.02    0.55
  C5                   CONDUIT     0.024     0  10:01      1.50    0.41    0.48
  C6                   CONDUIT     0.023     0  10:05      1.03    0.37    0.35
  C7                   CONDUIT     0.048     0  10:05      0.95    0.01    0.54
  C8                   CONDUIT     0.048     0  09:36      1.39    0.60    0.50
  C9                   CONDUIT     0.047     0  09:41      0.95    0.16    0.30
  V1                   ORIFICE     0.223     0  10:34                      1.00
  V2                   ORIFICE     0.022     0  11:48                      0.24
  V3                   ORIFICE     0.086     0  12:25                      0.65
  V4                   ORIFICE     0.019     0  12:20                      0.35
  V5                   ORIFICE     0.027     0  10:53                      1.00
  V6                   ORIFICE     0.071     0  11:21                      0.43
  
  
  ***************************
  Flow Classification Summary
  ***************************
  
  -------------------------------------------------------------------------------------
                      Adjusted    ---------- Fraction of Time in Flow Class ---------- 
                       /Actual         Up    Down  Sub   Sup   Up    Down  Norm  Inlet 
  Conduit               Length    Dry  Dry   Dry   Crit  Crit  Crit  Crit  Ltd   Ctrl  
  -------------------------------------------------------------------------------------
  C1                      1.00   0.00  0.00  0.00  0.64  0.36  0.00  0.00  0.93  0.00
  C10                     1.00   0.00  0.00  0.00  0.91  0.09  0.00  0.00  0.97  0.00
  C11                     1.00   0.00  0.00  0.00  0.18  0.82  0.00  0.00  1.00  0.00
  C12                     1.00   0.00  0.00  0.00  0.60  0.40  0.00  0.00  1.00  0.00
  C13                     1.00   0.00  0.00  0.00  0.87  0.13  0.00  0.00  0.89  0.00
  C14                     1.00   0.01  0.00  0.00  0.01  0.99  0.00  0.00  0.73  0.00
  C15                     1.00   0.03  0.00  0.00  0.00  0.96  0.00  0.00  0.00  0.00
  C16                     1.00   0.00  0.04  0.00  0.35  0.61  0.00  0.00  0.27  0.00
  C17                     1.00   0.00  0.00  0.00  0.30  0.70  0.00  0.00  0.98  0.00
  C18                     1.00   0.00  0.00  0.00  0.93  0.07  0.00  0.00  0.96  0.00
  C19                     1.00   0.00  0.00  0.00  1.00  0.00  0.00  0.00  1.00  0.00
  C2                      1.00   0.00  0.00  0.00  0.92  0.08  0.00  0.00  1.00  0.00
  C20                     1.00   0.00  0.00  0.00  0.46  0.54  0.00  0.00  0.99  0.00
  C21                     1.00   0.00  0.00  0.00  0.00  1.00  0.00  0.00  0.00  0.00
  C22                     1.00   0.00  0.00  0.00  1.00  0.00  0.00  0.00  1.00  0.00
  C23                     1.00   0.00  0.00  0.00  0.92  0.08  0.00  0.00  0.95  0.00
  C3                      1.00   0.00  0.01  0.00  0.07  0.92  0.00  0.00  0.11  0.00
  C4                      1.00   0.00  0.00  0.00  0.94  0.06  0.00  0.00  0.97  0.00
  C5                      1.00   0.00  0.00  0.00  0.77  0.23  0.00  0.00  0.98  0.00
  C6                      1.00   0.00  0.00  0.00  0.01  0.99  0.00  0.00  0.00  0.00
  C7                      1.00   0.00  0.00  0.00  0.92  0.08  0.00  0.00  0.96  0.00
  C8                      1.00   0.00  0.00  0.00  0.02  0.98  0.00  0.00  0.00  0.00
  C9                      1.00   0.00  0.00  0.00  1.00  0.00  0.00  0.00  1.00  0.00
  
  
  *************************
  Conduit Surcharge Summary
  *************************
  
  ----------------------------------------------------------------------------
                                                           Hours        Hours 
                         --------- Hours Full --------   Above Full   Capacity
  Conduit                Both Ends  Upstream  Dnstream   Normal Flow   Limited
  ----------------------------------------------------------------------------
  C10                         0.01      0.01      4.11      0.01         0.01
  C13                         0.01      0.01      2.43      0.01         0.01
  C18                         0.01      0.01      2.32      0.01         0.01
  C23                         0.01      0.01      4.15      0.01         0.01
  C4                          0.01      0.01      4.29      0.01         0.01
  C7                          0.01      0.01      4.32      0.01         0.01
  

  Analysis begun on:  Sun Jul 17 20:04:45 2022
  Analysis ended on:  Sun Jul 17 20:04:45 2022
  Total elapsed time: < 1 sec