
  EPA STORM WATER MANAGEMENT MODEL - VERSION 5.1 (Build 5.3.0.dev0)
  --------------------------------------------------------------

  
  *********************************************************
  NOTE: The summary statistics displayed in this report are
  based on results found at every computational time step,  
  not just on results from each reporting time step.
  *********************************************************
  
  ****************
  Analysis Options
  ****************
  Flow Units ............... CMS
  Process Models:
    Rainfall/Runoff ........ YES
    RDII ................... NO
    Snowmelt ............... NO
    Groundwater ............ NO
    Flow Routing ........... YES
    Ponding Allowed ........ NO
    Water Quality .......... NO
  Infiltration Method ...... HORTON
  Flow Routing Method ...... DYNWAVE
  Surcharge Method ......... EXTRAN
  Starting Date ............ 04/29/2007 02:50:00
  Ending Date .............. 04/29/2007 20:15:00
  Antecedent Dry Days ...... 0.0
  Report Time Step ......... 00:05:00
  Wet Time Step ............ 00:05:00
  Dry Time Step ............ 01:00:00
  Routing Time Step ........ 30.00 sec
  Variable Time Step ....... YES
  Maximum Trials ........... 8
  Number of Threads ........ 1
  Head Tolerance ........... 0.001500 m
  
  
  **************************        Volume         Depth
  Runoff Quantity Continuity     hectare-m            mm
  **************************     ---------       -------
  Total Precipitation ......         1.117         6.198
  Evaporation Loss .........         0.000         0.000
  Infiltration Loss ........         0.000         0.000
  Surface Runoff ...........         1.089         6.046
  Final Storage ............         0.028         0.157
  Continuity Error (%) .....        -0.072
  
  
  **************************        Volume        Volume
  Flow Routing Continuity        hectare-m      10^6 ltr
  **************************     ---------     ---------
  Dry Weather Inflow .......         0.684         6.845
  Wet Weather Inflow .......         1.089        10.891
  Groundwater Inflow .......         0.000         0.000
  RDII Inflow ..............         0.000         0.000
  External Inflow ..........         0.000         0.000
  External Outflow .........         0.978         9.784
  Flooding Loss ............         0.000         0.000
  Evaporation Loss .........         0.000         0.000
  Exfiltration Loss ........         0.000         0.000
  Initial Stored Volume ....         0.000         0.000
  Final Stored Volume ......         0.627         6.266
  Continuity Error (%) .....         9.508
  
  
  *************************
  Highest Continuity Errors
  *************************
  Node T2 (22.84%)
  Node T4 (21.56%)
  Node T6 (18.79%)
  Node T3 (15.10%)
  Node T5 (14.66%)
  
  
  ***************************
  Time-Step Critical Elements
  ***************************
  Link C15 (39.78%)
  
  
  ********************************
  Highest Flow Instability Indexes
  ********************************
  Link C13 (5)
  Link C11 (4)
  Link V3 (4)
  Link C3 (4)
  Link C15 (4)
  
  
  *************************
  Routing Time Step Summary
  *************************
  Minimum Time Step           :     0.01 sec
  Average Time Step           :    28.15 sec
  Maximum Time Step           :    30.00 sec
  Percent in Steady State     :     1.63
  Average Iterations per Step :     2.01
  Percent Not Converging      :     0.00
  
  
  ***************************
  Subcatchment Runoff Summary
  ***************************
  
  ------------------------------------------------------------------------------------------------------------------------------
                            Total      Total      Total      Total     Imperv       Perv      Total       Total     Peak  Runoff
                           Precip      Runon       Evap      Infil     Runoff     Runoff     Runoff      Runoff   Runoff   Coeff
  Subcatchment                 mm         mm         mm         mm         mm         mm         mm    10^6 ltr      CMS
  ------------------------------------------------------------------------------------------------------------------------------
  SC01                       5.11       0.00       0.00       0.00       5.01       0.00       5.01        1.65     0.09   0.980
  SC010                      5.11       0.00       0.00       0.00       4.97       0.00       4.97        0.58     0.03   0.973
  SC02                       6.10       0.00       0.00       0.00       5.99       0.00       5.99        1.36     0.11   0.981
  SC03                       7.67       0.00       0.00       0.00       7.59       0.00       7.59        1.37     0.07   0.990
  SC04                       6.10       0.00       0.00       0.00       5.88       0.00       5.88        0.41     0.03   0.964
  SC05                       5.11       0.00       0.00       0.00       5.00       0.00       5.00        0.78     0.04   0.978
  SC06                       6.23       0.00       0.00       0.00       5.95       0.00       5.95        1.94     0.09   0.955
  SC07                       6.10       0.00       0.00       0.00       5.88       0.00       5.88        0.28     0.02   0.964
  SC08                       7.67       0.00       0.00       0.00       7.53       0.00       7.53        2.11     0.09   0.982
  SC09                       6.23       0.00       0.00       0.00       6.06       0.00       6.06        0.42     0.02   0.973
  
  
  ******************
  Node Depth Summary
  ******************
  
  ---------------------------------------------------------------------------------
                                 Average  Maximum  Maximum  Time of Max    Reported
                                   Depth    Depth      HGL   Occurrence   Max Depth
  Node                 Type       Meters   Meters   Meters  days hr:min      Meters
  ---------------------------------------------------------------------------------
  CSO10                JUNCTION     0.09     0.15    30.15     0  09:52        0.15
  CSO7                 JUNCTION     0.08     0.14    34.14     0  09:50        0.14
  CSO8                 JUNCTION     0.11     0.18    32.18     0  11:40        0.18
  CSO9                 JUNCTION     0.08     0.13    40.13     0  13:21        0.13
  J1                   JUNCTION     0.06     0.09    34.09     0  09:32        0.09
  J10                  JUNCTION     0.08     0.13    29.13     0  09:57        0.13
  J11                  JUNCTION     0.09     0.14    31.14     0  09:57        0.14
  J12                  JUNCTION     0.17     0.39    26.39     0  15:11        0.39
  J13                  JUNCTION     0.05     0.10    29.10     0  09:50        0.10
  J14                  JUNCTION     0.11     0.17    20.17     0  11:07        0.17
  J15                  JUNCTION     0.14     0.20    15.20     0  10:04        0.20
  J16                  JUNCTION     0.05     0.09    30.09     0  09:32        0.09
  J17                  JUNCTION     0.05     0.11    20.11     0  10:40        0.11
  J18                  JUNCTION     0.04     0.07    29.07     0  09:56        0.07
  J19                  JUNCTION     0.13     0.16     8.16     0  10:47        0.16
  J2                   JUNCTION     0.05     0.07    25.07     0  13:24        0.07
  J3                   JUNCTION     0.10     0.13    18.13     0  11:10        0.13
  J4                   JUNCTION     0.10     0.17    33.17     0  09:56        0.17
  J5                   JUNCTION     0.05     0.09    32.09     0  09:55        0.09
  J6                   JUNCTION     0.05     0.08    25.08     0  08:55        0.08
  J7                   JUNCTION     0.07     0.10    39.10     0  13:23        0.10
  J8                   JUNCTION     0.09     0.13    36.13     0  13:22        0.13
  J9                   JUNCTION     0.08     0.15    29.15     0  13:39        0.15
  Out_to_WWTP          OUTFALL      0.13     0.16     6.16     0  10:48        0.16
  T1                   STORAGE      2.11     3.98    13.98     0  10:47        3.98
  T2                   STORAGE      1.10     2.63    23.63     0  14:41        2.63
  T3                   STORAGE      2.07     4.40    26.40     0  15:16        4.39
  T4                   STORAGE      1.76     4.06    31.06     0  16:58        4.06
  T5                   STORAGE      1.63     3.33    30.33     0  13:22        3.33
  T6                   STORAGE      1.67     4.46    35.46     0  17:25        4.46
  
  
  *******************
  Node Inflow Summary
  *******************
  
  -------------------------------------------------------------------------------------------------
                                  Maximum  Maximum                  Lateral       Total        Flow
                                  Lateral    Total  Time of Max      Inflow      Inflow     Balance
                                   Inflow   Inflow   Occurrence      Volume      Volume       Error
  Node                 Type           CMS      CMS  days hr:min    10^6 ltr    10^6 ltr     Percent
  -------------------------------------------------------------------------------------------------
  CSO10                JUNCTION     0.038    0.038     0  09:55       0.827       0.828       0.035
  CSO7                 JUNCTION     0.033    0.033     0  09:50       0.786       0.787       0.049
  CSO8                 JUNCTION     0.100    0.100     0  09:55        2.56        2.56      -0.006
  CSO9                 JUNCTION     0.026    0.026     0  13:20       0.761       0.761       0.038
  J1                   JUNCTION     0.068    0.068     0  09:30        1.76        1.76       0.048
  J10                  JUNCTION     0.080    0.176     0  09:55        2.04         4.6       0.027
  J11                  JUNCTION     0.000    0.100     0  11:40           0        2.56       0.058
  J12                  JUNCTION     0.000    0.323     0  15:09           0        7.89       2.509
  J13                  JUNCTION     0.134    0.134     0  09:50        2.18        2.18      -0.123
  J14                  JUNCTION     0.000    0.147     0  11:10           0        4.01       0.089
  J15                  JUNCTION     0.000    0.361     0  10:00           0        10.6       0.366
  J16                  JUNCTION     0.116    0.116     0  09:30        2.62        2.62       0.036
  J17                  JUNCTION     0.000    0.076     0  10:40           0        1.19       0.382
  J18                  JUNCTION     0.000    0.038     0  09:53           0       0.827       0.129
  J19                  JUNCTION     0.000    0.241     0  10:47           0        9.79       0.097
  J2                   JUNCTION     0.000    0.032     0  13:22           0        1.24       0.372
  J3                   JUNCTION     0.000    0.188     0  11:08           0        5.94      -0.201
  J4                   JUNCTION     0.000    0.033     0  09:51           0       0.786       0.416
  J5                   JUNCTION     0.035    0.067     0  09:55       0.628        1.41       0.120
  J6                   JUNCTION     0.000    0.035     0  08:55           0       0.701       0.337
  J7                   JUNCTION     0.000    0.026     0  13:21           0       0.761       0.275
  J8                   JUNCTION     0.116    0.141     0  13:20        3.58        4.34       0.094
  J9                   JUNCTION     0.000    0.161     0  15:05           0        2.99       0.120
  Out_to_WWTP          OUTFALL      0.000    0.241     0  10:48           0        9.78       0.000
  T1                   STORAGE      0.000    0.339     0  10:04           0        10.5       4.104
  T2                   STORAGE      0.000    0.134     0  09:50           0        2.18      29.608
  T3                   STORAGE      0.000    0.405     0  15:23           0         7.7      17.788
  T4                   STORAGE      0.000    0.067     0  09:55           0        1.41      27.491
  T5                   STORAGE      0.000    0.068     0  09:33           0        1.76      17.172
  T6                   STORAGE      0.000    0.140     0  13:22           0        4.34      23.138
  
  
  **********************
  Node Surcharge Summary
  **********************
  
  No nodes were surcharged.
  
  
  *********************
  Node Flooding Summary
  *********************
  
  No nodes were flooded.
  
  
  **********************
  Storage Volume Summary
  **********************
  
  --------------------------------------------------------------------------------------------------
                         Average     Avg  Evap Exfil       Maximum     Max    Time of Max    Maximum
                          Volume    Pcnt  Pcnt  Pcnt        Volume    Pcnt     Occurrence    Outflow
  Storage Unit           1000 m3    Full  Loss  Loss       1000 m3    Full    days hr:min        CMS
  --------------------------------------------------------------------------------------------------
  T1                       0.295      42     0     0         0.557      80       0  10:47      0.241
  T2                       0.220      22     0     0         0.526      53       0  14:41      0.076
  T3                       1.079      41     0     0         2.286      88       0  15:16      0.305
  T4                       0.176      35     0     0         0.406      81       0  16:58      0.035
  T5                       0.163      33     0     0         0.333      67       0  13:22      0.032
  T6                       0.201      33     0     0         0.535      89       0  17:25      0.161
  
  
  ***********************
  Outfall Loading Summary
  ***********************
  
  -----------------------------------------------------------
                         Flow       Avg       Max       Total
                         Freq      Flow      Flow      Volume
  Outfall Node           Pcnt       CMS       CMS    10^6 ltr
  -----------------------------------------------------------
  Out_to_WWTP           99.10     0.160     0.241       9.784
  -----------------------------------------------------------
  System                99.10     0.160     0.241       9.784
  
  
  ********************
  Link Flow Summary
  ********************
  
  -----------------------------------------------------------------------------
                                 Maximum  Time of Max   Maximum    Max/    Max/
                                  |Flow|   Occurrence   |Veloc|    Full    Full
  Link                 Type          CMS  days hr:min     m/sec    Flow   Depth
  -----------------------------------------------------------------------------
  C1                   CONDUIT     0.032     0  13:24      0.98    0.01    0.10
  C10                  CONDUIT     0.140     0  13:22      2.35    0.01    0.54
  C11                  CONDUIT     0.181     0  11:10      1.63    0.01    0.08
  C12                  CONDUIT     0.152     0  13:39      1.07    0.01    0.13
  C13                  CONDUIT     0.405     0  15:23      1.62    0.02    0.60
  C14                  CONDUIT     0.241     0  10:48      2.01    0.01    0.08
  C15                  CONDUIT     0.100     0  11:40      1.97    0.32    0.35
  C16                  CONDUIT     0.099     0  09:57      1.08    0.01    0.07
  C17                  CONDUIT     0.175     0  09:57      1.70    0.01    0.12
  C18                  CONDUIT     0.134     0  09:50      1.13    0.00    0.52
  C19                  CONDUIT     0.073     0  10:40      1.07    0.03    0.15
  C2                   CONDUIT     0.035     0  08:55      1.12    0.04    0.17
  C20                  CONDUIT     0.116     0  09:32      1.30    0.00    0.07
  C21                  CONDUIT     0.038     0  09:53      1.24    0.22    0.25
  C22                  CONDUIT     0.038     0  09:56      0.73    0.02    0.17
  C23                  CONDUIT     0.339     0  10:04      1.15    0.04    0.57
  C3                   CONDUIT     0.148     0  11:08      2.04    0.06    0.15
  C4                   CONDUIT     0.068     0  09:33      1.11    0.02    0.54
  C5                   CONDUIT     0.033     0  09:51      1.24    0.56    0.59
  C6                   CONDUIT     0.033     0  09:56      1.14    0.52    0.43
  C7                   CONDUIT     0.067     0  09:55      0.92    0.02    0.54
  C8                   CONDUIT     0.026     0  13:21      1.74    0.32    0.36
  C9                   CONDUIT     0.025     0  13:23      0.76    0.09    0.23
  V1                   ORIFICE     0.241     0  10:47                      1.00
  V2                   ORIFICE     0.076     0  10:40                      1.00
  V3                   ORIFICE     0.147     0  11:10                      1.00
  V4                   ORIFICE     0.035     0  08:55                      1.00
  V5                   ORIFICE     0.032     0  13:22                      1.00
  V6                   ORIFICE     0.161     0  15:05                      1.00
  
  
  ***************************
  Flow Classification Summary
  ***************************
  
  -------------------------------------------------------------------------------------
                      Adjusted    ---------- Fraction of Time in Flow Class ---------- 
                       /Actual         Up    Down  Sub   Sup   Up    Down  Norm  Inlet 
  Conduit               Length    Dry  Dry   Dry   Crit  Crit  Crit  Crit  Ltd   Ctrl  
  -------------------------------------------------------------------------------------
  C1                      1.00   0.00  0.00  0.00  0.60  0.40  0.00  0.00  0.96  0.00
  C10                     1.00   0.00  0.00  0.00  0.96  0.04  0.00  0.00  0.98  0.00
  C11                     1.00   0.00  0.00  0.00  0.04  0.96  0.00  0.00  1.00  0.00
  C12                     1.00   0.00  0.00  0.00  0.79  0.21  0.00  0.00  0.99  0.00
  C13                     1.00   0.00  0.00  0.00  0.92  0.08  0.00  0.00  0.66  0.00
  C14                     1.00   0.01  0.00  0.00  0.01  0.99  0.00  0.00  0.51  0.00
  C15                     1.00   0.01  0.00  0.00  0.00  0.99  0.00  0.00  0.01  0.00
  C16                     1.00   0.00  0.01  0.00  0.36  0.63  0.00  0.00  0.27  0.00
  C17                     1.00   0.00  0.00  0.00  0.24  0.76  0.00  0.00  0.98  0.00
  C18                     1.00   0.00  0.00  0.00  0.80  0.20  0.00  0.00  0.97  0.00
  C19                     1.00   0.00  0.00  0.00  1.00  0.00  0.00  0.00  1.00  0.00
  C2                      1.00   0.00  0.00  0.00  0.86  0.14  0.00  0.00  0.99  0.00
  C20                     1.00   0.00  0.00  0.00  0.59  0.41  0.00  0.00  0.99  0.00
  C21                     1.00   0.00  0.00  0.00  0.00  1.00  0.00  0.00  0.00  0.00
  C22                     1.00   0.00  0.00  0.00  1.00  0.00  0.00  0.00  1.00  0.00
  C23                     1.00   0.00  0.00  0.00  0.91  0.09  0.00  0.00  0.95  0.00
  C3                      1.00   0.00  0.00  0.00  0.04  0.96  0.00  0.00  0.25  0.00
  C4                      1.00   0.00  0.00  0.00  0.92  0.08  0.00  0.00  0.98  0.00
  C5                      1.00   0.00  0.00  0.00  0.95  0.05  0.00  0.00  0.98  0.00
  C6                      1.00   0.00  0.00  0.00  0.01  0.99  0.00  0.00  0.00  0.00
  C7                      1.00   0.00  0.00  0.00  0.86  0.14  0.00  0.00  0.95  0.00
  C8                      1.00   0.00  0.00  0.00  0.03  0.97  0.00  0.00  0.00  0.00
  C9                      1.00   0.00  0.00  0.00  1.00  0.00  0.00  0.00  1.00  0.00
  
  
  *************************
  Conduit Surcharge Summary
  *************************
  
  ----------------------------------------------------------------------------
                                                           Hours        Hours 
                         --------- Hours Full --------   Above Full   Capacity
  Conduit                Both Ends  Upstream  Dnstream   Normal Flow   Limited
  ----------------------------------------------------------------------------
  C10                         0.01      0.01      7.00      0.01         0.01
  C13                         0.01      0.01      7.58      0.01         0.01
  C18                         0.01      0.01      5.71      0.01         0.01
  C23                         0.01      0.01      9.33      0.01         0.01
  C4                          0.01      0.01      9.16      0.01         0.01
  C7                          0.01      0.01      8.44      0.01         0.01
  

  Analysis begun on:  Sun Jul 17 19:54:42 2022
  Analysis ended on:  Sun Jul 17 19:54:45 2022
  Total elapsed time: 00:00:03