
  EPA STORM WATER MANAGEMENT MODEL - VERSION 5.1 (Build 5.3.0.dev0)
  --------------------------------------------------------------

  
  *********************************************************
  NOTE: The summary statistics displayed in this report are
  based on results found at every computational time step,  
  not just on results from each reporting time step.
  *********************************************************
  
  ****************
  Analysis Options
  ****************
  Flow Units ............... CMS
  Process Models:
    Rainfall/Runoff ........ YES
    RDII ................... NO
    Snowmelt ............... NO
    Groundwater ............ NO
    Flow Routing ........... YES
    Ponding Allowed ........ NO
    Water Quality .......... NO
  Infiltration Method ...... HORTON
  Flow Routing Method ...... DYNWAVE
  Surcharge Method ......... EXTRAN
  Starting Date ............ 12/18/2009 15:00:00
  Ending Date .............. 12/19/2009 01:45:00
  Antecedent Dry Days ...... 0.0
  Report Time Step ......... 00:05:00
  Wet Time Step ............ 00:05:00
  Dry Time Step ............ 01:00:00
  Routing Time Step ........ 30.00 sec
  Variable Time Step ....... YES
  Maximum Trials ........... 8
  Number of Threads ........ 1
  Head Tolerance ........... 0.001500 m
  
  
  **************************        Volume         Depth
  Runoff Quantity Continuity     hectare-m            mm
  **************************     ---------       -------
  Total Precipitation ......         1.512         8.389
  Evaporation Loss .........         0.000         0.000
  Infiltration Loss ........         0.000         0.000
  Surface Runoff ...........         1.481         8.221
  Final Storage ............         0.031         0.172
  Continuity Error (%) .....        -0.050
  
  
  **************************        Volume        Volume
  Flow Routing Continuity        hectare-m      10^6 ltr
  **************************     ---------     ---------
  Dry Weather Inflow .......         0.257         2.570
  Wet Weather Inflow .......         1.481        14.810
  Groundwater Inflow .......         0.000         0.000
  RDII Inflow ..............         0.000         0.000
  External Inflow ..........         0.000         0.000
  External Outflow .........         0.832         8.322
  Flooding Loss ............         0.087         0.867
  Evaporation Loss .........         0.000         0.000
  Exfiltration Loss ........         0.000         0.000
  Initial Stored Volume ....         0.000         0.000
  Final Stored Volume ......         0.626         6.265
  Continuity Error (%) .....        11.087
  
  
  *************************
  Highest Continuity Errors
  *************************
  Node T2 (30.43%)
  Node T4 (19.09%)
  Node T3 (17.40%)
  Node T5 (17.33%)
  Node T6 (17.09%)
  
  
  ***************************
  Time-Step Critical Elements
  ***************************
  Link C15 (38.11%)
  
  
  ********************************
  Highest Flow Instability Indexes
  ********************************
  Link C15 (3)
  Link C20 (3)
  Link C18 (2)
  Link C4 (2)
  Link C21 (2)
  
  
  *************************
  Routing Time Step Summary
  *************************
  Minimum Time Step           :     0.10 sec
  Average Time Step           :    27.70 sec
  Maximum Time Step           :    30.00 sec
  Percent in Steady State     :     1.09
  Average Iterations per Step :     2.01
  Percent Not Converging      :     0.00
  
  
  ***************************
  Subcatchment Runoff Summary
  ***************************
  
  ------------------------------------------------------------------------------------------------------------------------------
                            Total      Total      Total      Total     Imperv       Perv      Total       Total     Peak  Runoff
                           Precip      Runon       Evap      Infil     Runoff     Runoff     Runoff      Runoff   Runoff   Coeff
  Subcatchment                 mm         mm         mm         mm         mm         mm         mm    10^6 ltr      CMS
  ------------------------------------------------------------------------------------------------------------------------------
  SC01                       8.39       0.00       0.00       0.00       8.29       0.00       8.29        2.73     0.19   0.988
  SC010                      8.39       0.00       0.00       0.00       8.25       0.00       8.25        0.97     0.06   0.984
  SC02                      10.95       0.00       0.00       0.00      10.84       0.00      10.84        2.47     0.15   0.990
  SC03                       6.65       0.00       0.00       0.00       6.57       0.00       6.57        1.18     0.09   0.987
  SC04                      10.95       0.00       0.00       0.00      10.71       0.00      10.71        0.74     0.04   0.978
  SC05                       8.39       0.00       0.00       0.00       8.28       0.00       8.28        1.29     0.09   0.987
  SC06                       8.18       0.00       0.00       0.00       7.85       0.00       7.85        2.55     0.15   0.959
  SC07                      10.95       0.00       0.00       0.00      10.71       0.00      10.71        0.51     0.03   0.978
  SC08                       6.65       0.00       0.00       0.00       6.50       0.00       6.50        1.82     0.12   0.977
  SC09                       8.18       0.00       0.00       0.00       7.98       0.00       7.98        0.55     0.03   0.975
  
  
  ******************
  Node Depth Summary
  ******************
  
  ---------------------------------------------------------------------------------
                                 Average  Maximum  Maximum  Time of Max    Reported
                                   Depth    Depth      HGL   Occurrence   Max Depth
  Node                 Type       Meters   Meters   Meters  days hr:min      Meters
  ---------------------------------------------------------------------------------
  CSO10                JUNCTION     0.12     0.21    30.21     0  02:21        0.21
  CSO7                 JUNCTION     0.10     0.14    34.14     0  05:00        0.14
  CSO8                 JUNCTION     0.12     0.22    32.22     0  02:25        0.21
  CSO9                 JUNCTION     0.10     0.16    40.16     0  02:35        0.16
  J1                   JUNCTION     0.07     0.11    34.11     0  01:56        0.11
  J10                  JUNCTION     0.09     0.15    29.15     0  02:27        0.15
  J11                  JUNCTION     0.10     0.16    31.16     0  02:27        0.16
  J12                  JUNCTION     0.13     0.18    26.18     0  02:30        0.18
  J13                  JUNCTION     0.07     0.11    29.11     0  05:02        0.11
  J14                  JUNCTION     0.11     0.14    20.14     0  09:08        0.14
  J15                  JUNCTION     0.17     0.20    15.20     0  06:17        0.20
  J16                  JUNCTION     0.07     0.11    30.11     0  01:55        0.11
  J17                  JUNCTION     0.06     0.08    20.08     0  07:28        0.08
  J18                  JUNCTION     0.06     0.09    29.09     0  02:25        0.09
  J19                  JUNCTION     0.15     0.17     8.17     0  05:43        0.17
  J2                   JUNCTION     0.06     0.07    25.07     0  07:19        0.07
  J3                   JUNCTION     0.11     0.13    18.13     0  08:23        0.13
  J4                   JUNCTION     0.12     0.17    33.17     0  05:07        0.17
  J5                   JUNCTION     0.07     0.10    32.10     0  05:06        0.10
  J6                   JUNCTION     0.06     0.07    25.07     0  07:12        0.07
  J7                   JUNCTION     0.08     0.12    39.12     0  02:37        0.12
  J8                   JUNCTION     0.10     0.15    36.15     0  03:05        0.15
  J9                   JUNCTION     0.10     0.11    29.11     0  05:29        0.11
  Out_to_WWTP          OUTFALL      0.15     0.17     6.17     0  08:10        0.17
  T1                   STORAGE      3.58     5.00    15.00     0  05:42        5.00
  T2                   STORAGE      3.05     5.00    26.00     0  06:39        5.00
  T3                   STORAGE      2.18     3.52    25.52     0  08:59        3.52
  T4                   STORAGE      2.99     5.00    32.00     0  06:29        5.00
  T5                   STORAGE      2.84     4.24    31.24     0  07:17        4.24
  T6                   STORAGE      3.60     5.00    36.00     0  04:26        5.00
  
  
  *******************
  Node Inflow Summary
  *******************
  
  -------------------------------------------------------------------------------------------------
                                  Maximum  Maximum                  Lateral       Total        Flow
                                  Lateral    Total  Time of Max      Inflow      Inflow     Balance
                                   Inflow   Inflow   Occurrence      Volume      Volume       Error
  Node                 Type           CMS      CMS  days hr:min    10^6 ltr    10^6 ltr     Percent
  -------------------------------------------------------------------------------------------------
  CSO10                JUNCTION     0.066    0.066     0  02:20        1.06        1.06       0.003
  CSO7                 JUNCTION     0.036    0.036     0  05:00       0.703       0.704       0.020
  CSO8                 JUNCTION     0.135    0.135     0  02:25        1.93        1.93       0.009
  CSO9                 JUNCTION     0.039    0.039     0  02:35       0.682       0.682       0.023
  J1                   JUNCTION     0.101    0.101     0  01:55        1.67        1.67      -0.126
  J10                  JUNCTION     0.098    0.228     0  02:25        1.44        3.37      -0.011
  J11                  JUNCTION     0.000    0.135     0  02:25           0        1.93       0.055
  J12                  JUNCTION     0.000    0.273     0  02:28           0        5.71       0.346
  J13                  JUNCTION     0.164    0.164     0  05:00        2.78        2.78      -0.232
  J14                  JUNCTION     0.000    0.104     0  08:59           0        2.94       0.220
  J15                  JUNCTION     0.000    0.360     0  06:15           0        9.88       0.742
  J16                  JUNCTION     0.201    0.201     0  01:55        3.11        3.11      -0.085
  J17                  JUNCTION     0.000    0.033     0  06:39           0       0.941       0.659
  J18                  JUNCTION     0.000    0.066     0  02:21           0        1.06      -0.049
  J19                  JUNCTION     0.000    0.271     0  05:43           0        8.33       0.136
  J2                   JUNCTION     0.000    0.036     0  07:17           0        1.09       0.412
  J3                   JUNCTION     0.000    0.166     0  08:21           0         4.8       0.707
  J4                   JUNCTION     0.000    0.036     0  05:00           0       0.703       0.145
  J5                   JUNCTION     0.045    0.080     0  05:05       0.824        1.53      -0.034
  J6                   JUNCTION     0.000    0.028     0  06:29           0       0.787       0.485
  J7                   JUNCTION     0.000    0.039     0  02:35           0       0.682       0.213
  J8                   JUNCTION     0.173    0.211     0  03:05        3.18        3.86      -0.006
  J9                   JUNCTION     0.000    0.075     0  04:27           0        2.35       0.704
  Out_to_WWTP          OUTFALL      0.000    0.271     0  05:43           0        8.32       0.000
  T1                   STORAGE      0.000    0.358     0  06:17           0         9.8       6.862
  T2                   STORAGE      0.000    0.163     0  05:02           0        2.79      43.742
  T3                   STORAGE      0.000    0.271     0  02:31           0        5.69      21.071
  T4                   STORAGE      0.000    0.079     0  05:06           0        1.53      23.600
  T5                   STORAGE      0.000    0.101     0  01:56           0        1.67      20.968
  T6                   STORAGE      0.000    0.211     0  03:05           0        3.86      20.611
  
  
  **********************
  Node Surcharge Summary
  **********************
  
  No nodes were surcharged.
  
  
  *********************
  Node Flooding Summary
  *********************
  
  Flooding refers to all water that overflows a node, whether it ponds or not.
  --------------------------------------------------------------------------
                                                             Total   Maximum
                                 Maximum   Time of Max       Flood    Ponded
                        Hours       Rate    Occurrence      Volume     Depth
  Node                 Flooded       CMS   days hr:min    10^6 ltr    Meters
  --------------------------------------------------------------------------
  T1                      1.99     0.087      0  06:17       0.318     0.000
  T2                      1.46     0.048      0  06:56       0.109     0.000
  T4                      1.04     0.024      0  06:29       0.049     0.000
  T6                      3.86     0.067      0  04:40       0.391     0.000
  
  
  **********************
  Storage Volume Summary
  **********************
  
  --------------------------------------------------------------------------------------------------
                         Average     Avg  Evap Exfil       Maximum     Max    Time of Max    Maximum
                          Volume    Pcnt  Pcnt  Pcnt        Volume    Pcnt     Occurrence    Outflow
  Storage Unit           1000 m3    Full  Loss  Loss       1000 m3    Full    days hr:min        CMS
  --------------------------------------------------------------------------------------------------
  T1                       0.501      72     0     0         0.700     100       0  05:42      0.271
  T2                       0.611      61     0     0         1.000     100       0  06:39      0.033
  T3                       1.132      44     0     0         1.832      70       0  08:59      0.104
  T4                       0.299      60     0     0         0.500     100       0  06:29      0.028
  T5                       0.284      57     0     0         0.424      85       0  07:17      0.036
  T6                       0.432      72     0     0         0.600     100       0  04:26      0.075
  
  
  ***********************
  Outfall Loading Summary
  ***********************
  
  -----------------------------------------------------------
                         Flow       Avg       Max       Total
                         Freq      Flow      Flow      Volume
  Outfall Node           Pcnt       CMS       CMS    10^6 ltr
  -----------------------------------------------------------
  Out_to_WWTP           99.21     0.216     0.271       8.322
  -----------------------------------------------------------
  System                99.21     0.216     0.271       8.322
  
  
  ********************
  Link Flow Summary
  ********************
  
  -----------------------------------------------------------------------------
                                 Maximum  Time of Max   Maximum    Max/    Max/
                                  |Flow|   Occurrence   |Veloc|    Full    Full
  Link                 Type          CMS  days hr:min     m/sec    Flow   Depth
  -----------------------------------------------------------------------------
  C1                   CONDUIT     0.036     0  07:19      0.91    0.01    0.10
  C10                  CONDUIT     0.211     0  03:05      1.62    0.02    0.55
  C11                  CONDUIT     0.166     0  08:23      1.64    0.01    0.08
  C12                  CONDUIT     0.075     0  05:30      1.13    0.01    0.07
  C13                  CONDUIT     0.271     0  02:31      1.44    0.02    0.54
  C14                  CONDUIT     0.271     0  05:43      2.08    0.02    0.09
  C15                  CONDUIT     0.135     0  02:25      2.14    0.43    0.41
  C16                  CONDUIT     0.134     0  02:27      1.19    0.01    0.08
  C17                  CONDUIT     0.226     0  02:27      1.90    0.01    0.08
  C18                  CONDUIT     0.163     0  05:02      3.92    0.01    0.53
  C19                  CONDUIT     0.033     0  07:23      0.64    0.01    0.14
  C2                   CONDUIT     0.028     0  07:06      0.91    0.03    0.17
  C20                  CONDUIT     0.201     0  01:56      3.28    0.01    0.08
  C21                  CONDUIT     0.066     0  02:21      1.45    0.38    0.34
  C22                  CONDUIT     0.066     0  02:25      1.05    0.03    0.19
  C23                  CONDUIT     0.358     0  06:17      1.23    0.04    0.57
  C3                   CONDUIT     0.104     0  09:00      1.67    0.04    0.13
  C4                   CONDUIT     0.101     0  01:56      3.48    0.02    0.55
  C5                   CONDUIT     0.036     0  05:00      1.20    0.61    0.62
  C6                   CONDUIT     0.035     0  05:07      1.14    0.56    0.45
  C7                   CONDUIT     0.079     0  05:06      1.41    0.02    0.55
  C8                   CONDUIT     0.039     0  02:35      1.12    0.49    0.45
  C9                   CONDUIT     0.038     0  02:37      0.89    0.13    0.27
  V1                   ORIFICE     0.271     0  05:43                      1.00
  V2                   ORIFICE     0.033     0  06:39                      0.24
  V3                   ORIFICE     0.104     0  08:59                      0.65
  V4                   ORIFICE     0.028     0  06:29                      0.35
  V5                   ORIFICE     0.036     0  07:17                      1.00
  V6                   ORIFICE     0.075     0  04:27                      0.43
  
  
  ***************************
  Flow Classification Summary
  ***************************
  
  -------------------------------------------------------------------------------------
                      Adjusted    ---------- Fraction of Time in Flow Class ---------- 
                       /Actual         Up    Down  Sub   Sup   Up    Down  Norm  Inlet 
  Conduit               Length    Dry  Dry   Dry   Crit  Crit  Crit  Crit  Ltd   Ctrl  
  -------------------------------------------------------------------------------------
  C1                      1.00   0.00  0.00  0.00  0.13  0.87  0.00  0.00  0.96  0.00
  C10                     1.00   0.00  0.00  0.00  0.97  0.03  0.00  0.00  0.98  0.00
  C11                     1.00   0.00  0.00  0.00  0.31  0.69  0.00  0.00  1.00  0.00
  C12                     1.00   0.00  0.00  0.00  0.50  0.50  0.00  0.00  0.85  0.00
  C13                     1.00   0.00  0.00  0.00  0.89  0.11  0.00  0.00  0.93  0.00
  C14                     1.00   0.00  0.00  0.00  0.01  0.99  0.00  0.00  0.32  0.00
  C15                     1.00   0.00  0.00  0.00  0.00  1.00  0.00  0.00  0.00  0.00
  C16                     1.00   0.00  0.00  0.00  0.22  0.78  0.00  0.00  0.14  0.00
  C17                     1.00   0.00  0.00  0.00  0.19  0.81  0.00  0.00  0.98  0.00
  C18                     1.00   0.00  0.00  0.00  0.96  0.04  0.00  0.00  0.98  0.00
  C19                     1.00   0.00  0.00  0.00  1.00  0.00  0.00  0.00  1.00  0.00
  C2                      1.00   0.00  0.00  0.00  0.32  0.68  0.00  0.00  0.98  0.00
  C20                     1.00   0.00  0.00  0.00  0.37  0.63  0.00  0.00  0.99  0.00
  C21                     1.00   0.00  0.00  0.00  0.00  1.00  0.00  0.00  0.00  0.00
  C22                     1.00   0.00  0.00  0.00  0.87  0.13  0.00  0.00  1.00  0.00
  C23                     1.00   0.00  0.00  0.00  0.92  0.08  0.00  0.00  0.96  0.00
  C3                      1.00   0.00  0.00  0.00  0.03  0.96  0.00  0.00  0.12  0.00
  C4                      1.00   0.00  0.00  0.00  0.97  0.03  0.00  0.00  0.99  0.00
  C5                      1.00   0.00  0.00  0.00  0.93  0.07  0.00  0.00  0.99  0.00
  C6                      1.00   0.00  0.00  0.00  0.01  0.99  0.00  0.00  0.00  0.00
  C7                      1.00   0.00  0.00  0.00  0.96  0.04  0.00  0.00  0.98  0.00
  C8                      1.00   0.00  0.00  0.00  0.09  0.91  0.00  0.00  0.00  0.00
  C9                      1.00   0.00  0.00  0.00  1.00  0.00  0.00  0.00  1.00  0.00
  
  
  *************************
  Conduit Surcharge Summary
  *************************
  
  ----------------------------------------------------------------------------
                                                           Hours        Hours 
                         --------- Hours Full --------   Above Full   Capacity
  Conduit                Both Ends  Upstream  Dnstream   Normal Flow   Limited
  ----------------------------------------------------------------------------
  C10                         0.01      0.01      8.57      0.01         0.01
  C13                         0.01      0.01      6.95      0.01         0.01
  C18                         0.01      0.01      7.40      0.01         0.01
  C23                         0.01      0.01      8.76      0.01         0.01
  C4                          0.01      0.01      8.93      0.01         0.01
  C7                          0.01      0.01      8.28      0.01         0.01
  

  Analysis begun on:  Sun Jul 17 22:00:39 2022
  Analysis ended on:  Sun Jul 17 22:00:39 2022
  Total elapsed time: < 1 sec