
  EPA STORM WATER MANAGEMENT MODEL - VERSION 5.1 (Build 5.3.0.dev0)
  --------------------------------------------------------------

  
  *********************************************************
  NOTE: The summary statistics displayed in this report are
  based on results found at every computational time step,  
  not just on results from each reporting time step.
  *********************************************************
  
  ****************
  Analysis Options
  ****************
  Flow Units ............... CMS
  Process Models:
    Rainfall/Runoff ........ YES
    RDII ................... NO
    Snowmelt ............... NO
    Groundwater ............ NO
    Flow Routing ........... YES
    Ponding Allowed ........ NO
    Water Quality .......... NO
  Infiltration Method ...... HORTON
  Flow Routing Method ...... DYNWAVE
  Surcharge Method ......... EXTRAN
  Starting Date ............ 02/20/2009 07:05:00
  Ending Date .............. 02/20/2009 17:15:00
  Antecedent Dry Days ...... 0.0
  Report Time Step ......... 00:05:00
  Wet Time Step ............ 00:05:00
  Dry Time Step ............ 01:00:00
  Routing Time Step ........ 30.00 sec
  Variable Time Step ....... YES
  Maximum Trials ........... 8
  Number of Threads ........ 1
  Head Tolerance ........... 0.001500 m
  
  
  **************************        Volume         Depth
  Runoff Quantity Continuity     hectare-m            mm
  **************************     ---------       -------
  Total Precipitation ......         1.169         6.489
  Evaporation Loss .........         0.000         0.000
  Infiltration Loss ........         0.000         0.000
  Surface Runoff ...........         1.133         6.285
  Final Storage ............         0.039         0.218
  Continuity Error (%) .....        -0.224
  
  
  **************************        Volume        Volume
  Flow Routing Continuity        hectare-m      10^6 ltr
  **************************     ---------     ---------
  Dry Weather Inflow .......         0.487         4.867
  Wet Weather Inflow .......         1.132        11.316
  Groundwater Inflow .......         0.000         0.000
  RDII Inflow ..............         0.000         0.000
  External Inflow ..........         0.000         0.000
  External Outflow .........         0.645         6.449
  Flooding Loss ............         0.096         0.958
  Evaporation Loss .........         0.000         0.000
  Exfiltration Loss ........         0.000         0.000
  Initial Stored Volume ....         0.000         0.000
  Final Stored Volume ......         0.663         6.630
  Continuity Error (%) .....        13.253
  
  
  *************************
  Highest Continuity Errors
  *************************
  Node T2 (32.26%)
  Node T5 (23.49%)
  Node T4 (21.21%)
  Node T3 (19.91%)
  Node T6 (19.90%)
  
  
  ***************************
  Time-Step Critical Elements
  ***************************
  Link C15 (60.28%)
  
  
  ********************************
  Highest Flow Instability Indexes
  ********************************
  Link C13 (3)
  Link C15 (2)
  Link C20 (2)
  Link C18 (2)
  Link C21 (2)
  
  
  *************************
  Routing Time Step Summary
  *************************
  Minimum Time Step           :     0.08 sec
  Average Time Step           :    26.54 sec
  Maximum Time Step           :    30.00 sec
  Percent in Steady State     :     1.15
  Average Iterations per Step :     2.01
  Percent Not Converging      :     0.00
  
  
  ***************************
  Subcatchment Runoff Summary
  ***************************
  
  ------------------------------------------------------------------------------------------------------------------------------
                            Total      Total      Total      Total     Imperv       Perv      Total       Total     Peak  Runoff
                           Precip      Runon       Evap      Infil     Runoff     Runoff     Runoff      Runoff   Runoff   Coeff
  Subcatchment                 mm         mm         mm         mm         mm         mm         mm    10^6 ltr      CMS
  ------------------------------------------------------------------------------------------------------------------------------
  SC01                       6.36       0.00       0.00       0.00       6.23       0.00       6.23        2.06     0.22   0.979
  SC010                      6.36       0.00       0.00       0.00       6.17       0.00       6.17        0.72     0.07   0.970
  SC02                       5.33       0.00       0.00       0.00       5.20       0.00       5.20        1.18     0.18   0.976
  SC03                       7.00       0.00       0.00       0.00       6.94       0.00       6.94        1.25     0.33   0.991
  SC04                       5.33       0.00       0.00       0.00       5.03       0.00       5.03        0.35     0.04   0.944
  SC05                       6.36       0.00       0.00       0.00       6.21       0.00       6.21        0.97     0.10   0.977
  SC06                       7.10       0.00       0.00       0.00       6.68       0.00       6.68        2.17     0.18   0.941
  SC07                       5.33       0.00       0.00       0.00       5.03       0.00       5.03        0.24     0.03   0.944
  SC08                       7.00       0.00       0.00       0.00       6.82       0.00       6.82        1.91     0.31   0.975
  SC09                       7.10       0.00       0.00       0.00       6.86       0.00       6.86        0.47     0.05   0.966
  
  
  ******************
  Node Depth Summary
  ******************
  
  ---------------------------------------------------------------------------------
                                 Average  Maximum  Maximum  Time of Max    Reported
                                   Depth    Depth      HGL   Occurrence   Max Depth
  Node                 Type       Meters   Meters   Meters  days hr:min      Meters
  ---------------------------------------------------------------------------------
  CSO10                JUNCTION     0.12     0.22    30.22     0  07:46        0.22
  CSO7                 JUNCTION     0.09     0.15    34.15     0  06:50        0.15
  CSO8                 JUNCTION     0.14     0.41    32.41     0  06:50        0.38
  CSO9                 JUNCTION     0.11     0.21    40.21     0  06:46        0.21
  J1                   JUNCTION     0.07     0.12    34.12     0  07:46        0.11
  J10                  JUNCTION     0.10     0.23    29.23     0  06:53        0.23
  J11                  JUNCTION     0.11     0.23    31.23     0  06:54        0.23
  J12                  JUNCTION     0.14     0.26    26.26     0  06:57        0.25
  J13                  JUNCTION     0.06     0.12    29.12     0  06:50        0.12
  J14                  JUNCTION     0.11     0.14    20.14     0  09:33        0.14
  J15                  JUNCTION     0.16     0.24    15.24     0  07:51        0.23
  J16                  JUNCTION     0.07     0.12    30.12     0  07:46        0.12
  J17                  JUNCTION     0.05     0.07    20.07     0  08:49        0.07
  J18                  JUNCTION     0.06     0.10    29.10     0  07:49        0.10
  J19                  JUNCTION     0.13     0.17     8.17     0  07:52        0.17
  J2                   JUNCTION     0.06     0.08    25.08     0  08:39        0.08
  J3                   JUNCTION     0.10     0.13    18.13     0  08:49        0.13
  J4                   JUNCTION     0.11     0.17    33.17     0  06:54        0.17
  J5                   JUNCTION     0.06     0.09    32.09     0  06:53        0.09
  J6                   JUNCTION     0.05     0.07    25.07     0  08:49        0.07
  J7                   JUNCTION     0.09     0.15    39.15     0  06:51        0.14
  J8                   JUNCTION     0.11     0.17    36.17     0  06:51        0.17
  J9                   JUNCTION     0.09     0.11    29.11     0  08:10        0.11
  Out_to_WWTP          OUTFALL      0.13     0.17     6.17     0  08:56        0.17
  T1                   STORAGE      2.70     5.00    15.00     0  07:51        5.00
  T2                   STORAGE      1.59     2.95    23.95     0  08:46        2.95
  T3                   STORAGE      2.08     4.17    26.17     0  09:14        4.17
  T4                   STORAGE      1.75     3.25    30.25     0  08:47        3.25
  T5                   STORAGE      2.26     4.27    31.27     0  08:36        4.27
  T6                   STORAGE      3.13     5.00    36.00     0  06:45        5.00
  
  
  *******************
  Node Inflow Summary
  *******************
  
  -------------------------------------------------------------------------------------------------
                                  Maximum  Maximum                  Lateral       Total        Flow
                                  Lateral    Total  Time of Max      Inflow      Inflow     Balance
                                   Inflow   Inflow   Occurrence      Volume      Volume       Error
  Node                 Type           CMS      CMS  days hr:min    10^6 ltr    10^6 ltr     Percent
  -------------------------------------------------------------------------------------------------
  CSO10                JUNCTION     0.076    0.076     0  07:45       0.895       0.895       0.036
  CSO7                 JUNCTION     0.037    0.037     0  06:50       0.595       0.595       0.078
  CSO8                 JUNCTION     0.322    0.322     0  06:50        2.29        2.29       0.031
  CSO9                 JUNCTION     0.058    0.058     0  06:45       0.713       0.713       0.049
  J1                   JUNCTION     0.120    0.120     0  07:45        1.66        1.66       0.027
  J10                  JUNCTION     0.344    0.577     0  06:52        1.72           4       0.113
  J11                  JUNCTION     0.000    0.321     0  06:51           0        2.29       0.260
  J12                  JUNCTION     0.000    0.642     0  06:53           0        5.96       1.035
  J13                  JUNCTION     0.200    0.200     0  06:50        1.76        1.76      -0.115
  J14                  JUNCTION     0.000    0.113     0  09:14           0        2.57       0.271
  J15                  JUNCTION     0.000    0.496     0  07:47           0        8.19       0.946
  J16                  JUNCTION     0.239    0.239     0  07:45        2.73        2.73      -0.004
  J17                  JUNCTION     0.000    0.026     0  08:46           0       0.619       0.846
  J18                  JUNCTION     0.000    0.075     0  07:46           0       0.895       0.090
  J19                  JUNCTION     0.000    0.271     0  07:52           0        6.46       0.188
  J2                   JUNCTION     0.000    0.036     0  08:37           0       0.881       0.578
  J3                   JUNCTION     0.000    0.171     0  08:47           0        3.98       0.893
  J4                   JUNCTION     0.000    0.037     0  06:50           0       0.594       0.604
  J5                   JUNCTION     0.042    0.074     0  06:51       0.503        1.09       0.159
  J6                   JUNCTION     0.000    0.023     0  08:47           0       0.552       0.631
  J7                   JUNCTION     0.000    0.058     0  06:46           0       0.713       0.425
  J8                   JUNCTION     0.221    0.273     0  06:50        3.32        4.04       0.147
  J9                   JUNCTION     0.000    0.075     0  06:45           0        1.98       0.872
  Out_to_WWTP          OUTFALL      0.000    0.271     0  07:53           0        6.45       0.000
  T1                   STORAGE      0.000    0.483     0  07:51           0        8.11      10.142
  T2                   STORAGE      0.000    0.196     0  06:50           0        1.76      47.613
  T3                   STORAGE      0.000    0.594     0  06:57           0         5.9      24.861
  T4                   STORAGE      0.000    0.074     0  06:53           0        1.09      26.919
  T5                   STORAGE      0.000    0.118     0  07:46           0        1.66      30.694
  T6                   STORAGE      0.000    0.271     0  06:51           0        4.03      24.847
  
  
  **********************
  Node Surcharge Summary
  **********************
  
  No nodes were surcharged.
  
  
  *********************
  Node Flooding Summary
  *********************
  
  Flooding refers to all water that overflows a node, whether it ponds or not.
  --------------------------------------------------------------------------
                                                             Total   Maximum
                                 Maximum   Time of Max       Flood    Ponded
                        Hours       Rate    Occurrence      Volume     Depth
  Node                 Flooded       CMS   days hr:min    10^6 ltr    Meters
  --------------------------------------------------------------------------
  T1                      0.88     0.212      0  07:51       0.279     0.000
  T6                      2.22     0.195      0  06:51       0.679     0.000
  
  
  **********************
  Storage Volume Summary
  **********************
  
  --------------------------------------------------------------------------------------------------
                         Average     Avg  Evap Exfil       Maximum     Max    Time of Max    Maximum
                          Volume    Pcnt  Pcnt  Pcnt        Volume    Pcnt     Occurrence    Outflow
  Storage Unit           1000 m3    Full  Loss  Loss       1000 m3    Full    days hr:min        CMS
  --------------------------------------------------------------------------------------------------
  T1                       0.378      54     0     0         0.700     100       0  07:51      0.271
  T2                       0.318      32     0     0         0.591      59       0  08:46      0.026
  T3                       1.080      42     0     0         2.168      83       0  09:14      0.113
  T4                       0.175      35     0     0         0.325      65       0  08:47      0.023
  T5                       0.226      45     0     0         0.427      85       0  08:36      0.036
  T6                       0.375      63     0     0         0.600     100       0  06:45      0.075
  
  
  ***********************
  Outfall Loading Summary
  ***********************
  
  -----------------------------------------------------------
                         Flow       Avg       Max       Total
                         Freq      Flow      Flow      Volume
  Outfall Node           Pcnt       CMS       CMS    10^6 ltr
  -----------------------------------------------------------
  Out_to_WWTP           99.20     0.180     0.271       6.449
  -----------------------------------------------------------
  System                99.20     0.180     0.271       6.449
  
  
  ********************
  Link Flow Summary
  ********************
  
  -----------------------------------------------------------------------------
                                 Maximum  Time of Max   Maximum    Max/    Max/
                                  |Flow|   Occurrence   |Veloc|    Full    Full
  Link                 Type          CMS  days hr:min     m/sec    Flow   Depth
  -----------------------------------------------------------------------------
  C1                   CONDUIT     0.036     0  08:39      0.92    0.01    0.10
  C10                  CONDUIT     0.271     0  06:51      1.66    0.03    0.56
  C11                  CONDUIT     0.171     0  08:49      1.65    0.01    0.09
  C12                  CONDUIT     0.075     0  07:55      0.96    0.01    0.09
  C13                  CONDUIT     0.594     0  06:57      1.45    0.03    0.56
  C14                  CONDUIT     0.271     0  07:53      2.08    0.02    0.09
  C15                  CONDUIT     0.321     0  06:51      2.74    1.02    0.68
  C16                  CONDUIT     0.296     0  06:54      1.47    0.03    0.12
  C17                  CONDUIT     0.567     0  06:53      2.79    0.03    0.12
  C18                  CONDUIT     0.196     0  06:50      3.36    0.01    0.53
  C19                  CONDUIT     0.026     0  08:49      0.51    0.01    0.15
  C2                   CONDUIT     0.023     0  08:49      0.75    0.03    0.16
  C20                  CONDUIT     0.237     0  07:46      2.34    0.01    0.09
  C21                  CONDUIT     0.075     0  07:46      1.51    0.43    0.36
  C22                  CONDUIT     0.074     0  07:49      0.99    0.03    0.21
  C23                  CONDUIT     0.483     0  07:51      1.25    0.05    0.58
  C3                   CONDUIT     0.113     0  09:15      1.74    0.04    0.14
  C4                   CONDUIT     0.118     0  07:46      3.06    0.03    0.56
  C5                   CONDUIT     0.037     0  06:50      1.23    0.63    0.62
  C6                   CONDUIT     0.035     0  06:54      1.16    0.55    0.44
  C7                   CONDUIT     0.074     0  06:53      1.44    0.02    0.55
  C8                   CONDUIT     0.058     0  06:46      1.32    0.73    0.55
  C9                   CONDUIT     0.054     0  06:52      1.01    0.18    0.32
  V1                   ORIFICE     0.271     0  07:52                      1.00
  V2                   ORIFICE     0.026     0  08:46                      0.24
  V3                   ORIFICE     0.113     0  09:14                      0.65
  V4                   ORIFICE     0.023     0  08:47                      0.35
  V5                   ORIFICE     0.036     0  08:37                      1.00
  V6                   ORIFICE     0.075     0  06:45                      0.43
  
  
  ***************************
  Flow Classification Summary
  ***************************
  
  -------------------------------------------------------------------------------------
                      Adjusted    ---------- Fraction of Time in Flow Class ---------- 
                       /Actual         Up    Down  Sub   Sup   Up    Down  Norm  Inlet 
  Conduit               Length    Dry  Dry   Dry   Crit  Crit  Crit  Crit  Ltd   Ctrl  
  -------------------------------------------------------------------------------------
  C1                      1.00   0.00  0.00  0.00  0.00  0.99  0.00  0.00  0.96  0.00
  C10                     1.00   0.00  0.00  0.00  0.97  0.03  0.00  0.00  0.98  0.00
  C11                     1.00   0.00  0.00  0.00  0.17  0.82  0.00  0.00  1.00  0.00
  C12                     1.00   0.00  0.00  0.00  0.93  0.07  0.00  0.00  1.00  0.00
  C13                     1.00   0.00  0.00  0.00  0.91  0.09  0.00  0.00  0.76  0.00
  C14                     1.00   0.00  0.00  0.00  0.01  0.99  0.00  0.00  0.48  0.00
  C15                     1.00   0.00  0.00  0.00  0.00  1.00  0.00  0.00  0.00  0.00
  C16                     1.00   0.00  0.00  0.00  0.20  0.80  0.00  0.00  0.24  0.00
  C17                     1.00   0.00  0.00  0.00  0.13  0.87  0.00  0.00  0.97  0.00
  C18                     1.00   0.00  0.00  0.00  0.96  0.04  0.00  0.00  0.98  0.00
  C19                     1.00   0.00  0.00  0.00  1.00  0.00  0.00  0.00  1.00  0.00
  C2                      1.00   0.00  0.00  0.00  0.91  0.08  0.00  0.00  0.98  0.00
  C20                     1.00   0.00  0.00  0.00  0.29  0.71  0.00  0.00  0.99  0.00
  C21                     1.00   0.00  0.00  0.00  0.00  1.00  0.00  0.00  0.00  0.00
  C22                     1.00   0.00  0.00  0.00  0.97  0.03  0.00  0.00  1.00  0.00
  C23                     1.00   0.00  0.00  0.00  0.92  0.08  0.00  0.00  0.96  0.00
  C3                      1.00   0.00  0.00  0.00  0.03  0.96  0.00  0.00  0.10  0.00
  C4                      1.00   0.00  0.00  0.00  0.97  0.03  0.00  0.00  0.98  0.00
  C5                      1.00   0.00  0.00  0.00  0.91  0.09  0.00  0.00  0.99  0.00
  C6                      1.00   0.00  0.00  0.00  0.01  0.99  0.00  0.00  0.00  0.00
  C7                      1.00   0.00  0.00  0.00  0.96  0.04  0.00  0.00  0.98  0.00
  C8                      1.00   0.00  0.00  0.00  0.00  1.00  0.00  0.00  0.00  0.00
  C9                      1.00   0.00  0.00  0.00  1.00  0.00  0.00  0.00  1.00  0.00
  
  
  *************************
  Conduit Surcharge Summary
  *************************
  
  ----------------------------------------------------------------------------
                                                           Hours        Hours 
                         --------- Hours Full --------   Above Full   Capacity
  Conduit                Both Ends  Upstream  Dnstream   Normal Flow   Limited
  ----------------------------------------------------------------------------
  C10                         0.01      0.01      7.05      0.01         0.01
  C13                         0.01      0.01      5.14      0.01         0.01
  C15                         0.01      0.01      0.01      0.03         0.01
  C18                         0.01      0.01      3.69      0.01         0.01
  C23                         0.01      0.01      7.15      0.01         0.01
  C4                          0.01      0.01      7.35      0.01         0.01
  C7                          0.01      0.01      6.70      0.01         0.01
  

  Analysis begun on:  Sun Jul 17 21:20:57 2022
  Analysis ended on:  Sun Jul 17 21:20:57 2022
  Total elapsed time: < 1 sec