
  EPA STORM WATER MANAGEMENT MODEL - VERSION 5.1 (Build 5.3.0.dev0)
  --------------------------------------------------------------

  
  *********************************************************
  NOTE: The summary statistics displayed in this report are
  based on results found at every computational time step,  
  not just on results from each reporting time step.
  *********************************************************
  
  ****************
  Analysis Options
  ****************
  Flow Units ............... CMS
  Process Models:
    Rainfall/Runoff ........ YES
    RDII ................... NO
    Snowmelt ............... NO
    Groundwater ............ NO
    Flow Routing ........... YES
    Ponding Allowed ........ NO
    Water Quality .......... NO
  Infiltration Method ...... HORTON
  Flow Routing Method ...... DYNWAVE
  Surcharge Method ......... EXTRAN
  Starting Date ............ 02/24/2007 17:05:00
  Ending Date .............. 02/25/2007 09:30:00
  Antecedent Dry Days ...... 0.0
  Report Time Step ......... 00:05:00
  Wet Time Step ............ 00:05:00
  Dry Time Step ............ 01:00:00
  Routing Time Step ........ 30.00 sec
  Variable Time Step ....... YES
  Maximum Trials ........... 8
  Number of Threads ........ 1
  Head Tolerance ........... 0.001500 m
  
  
  **************************        Volume         Depth
  Runoff Quantity Continuity     hectare-m            mm
  **************************     ---------       -------
  Total Precipitation ......         1.469         8.153
  Evaporation Loss .........         0.000         0.000
  Infiltration Loss ........         0.000         0.000
  Surface Runoff ...........         1.436         7.970
  Final Storage ............         0.035         0.196
  Continuity Error (%) .....        -0.155
  
  
  **************************        Volume        Volume
  Flow Routing Continuity        hectare-m      10^6 ltr
  **************************     ---------     ---------
  Dry Weather Inflow .......         0.383         3.830
  Wet Weather Inflow .......         1.436        14.355
  Groundwater Inflow .......         0.000         0.000
  RDII Inflow ..............         0.000         0.000
  External Inflow ..........         0.000         0.000
  External Outflow .........         1.165        11.652
  Flooding Loss ............         0.032         0.323
  Evaporation Loss .........         0.000         0.000
  Exfiltration Loss ........         0.000         0.000
  Initial Stored Volume ....         0.000         0.000
  Final Stored Volume ......         0.480         4.799
  Continuity Error (%) .....         7.762
  
  
  *************************
  Highest Continuity Errors
  *************************
  Node T4 (23.84%)
  Node T6 (17.46%)
  Node T5 (15.53%)
  Node T3 (10.79%)
  Node T1 (5.26%)
  
  
  ***************************
  Time-Step Critical Elements
  ***************************
  Link C15 (33.43%)
  
  
  ********************************
  Highest Flow Instability Indexes
  ********************************
  Link C11 (4)
  Link V3 (3)
  Link C23 (3)
  Link C3 (3)
  Link C15 (3)
  
  
  *************************
  Routing Time Step Summary
  *************************
  Minimum Time Step           :     0.00 sec
  Average Time Step           :    28.77 sec
  Maximum Time Step           :    30.00 sec
  Percent in Steady State     :     2.64
  Average Iterations per Step :     2.02
  Percent Not Converging      :     0.00
  
  
  ***************************
  Subcatchment Runoff Summary
  ***************************
  
  ------------------------------------------------------------------------------------------------------------------------------
                            Total      Total      Total      Total     Imperv       Perv      Total       Total     Peak  Runoff
                           Precip      Runon       Evap      Infil     Runoff     Runoff     Runoff      Runoff   Runoff   Coeff
  Subcatchment                 mm         mm         mm         mm         mm         mm         mm    10^6 ltr      CMS
  ------------------------------------------------------------------------------------------------------------------------------
  SC01                       8.62       0.00       0.00       0.00       8.50       0.00       8.50        2.81     0.15   0.987
  SC010                      8.62       0.00       0.00       0.00       8.45       0.00       8.45        0.99     0.05   0.981
  SC02                       7.43       0.00       0.00       0.00       7.30       0.00       7.30        1.66     0.09   0.982
  SC03                       7.86       0.00       0.00       0.00       7.79       0.00       7.79        1.40     0.11   0.992
  SC04                       7.43       0.00       0.00       0.00       7.13       0.00       7.13        0.49     0.02   0.960
  SC05                       8.62       0.00       0.00       0.00       8.49       0.00       8.49        1.32     0.07   0.985
  SC06                       8.41       0.00       0.00       0.00       8.04       0.00       8.04        2.62     0.12   0.956
  SC07                       7.43       0.00       0.00       0.00       7.13       0.00       7.13        0.34     0.01   0.960
  SC08                       7.86       0.00       0.00       0.00       7.71       0.00       7.71        2.16     0.09   0.981
  SC09                       8.41       0.00       0.00       0.00       8.20       0.00       8.20        0.57     0.03   0.975
  
  
  ******************
  Node Depth Summary
  ******************
  
  ---------------------------------------------------------------------------------
                                 Average  Maximum  Maximum  Time of Max    Reported
                                   Depth    Depth      HGL   Occurrence   Max Depth
  Node                 Type       Meters   Meters   Meters  days hr:min      Meters
  ---------------------------------------------------------------------------------
  CSO10                JUNCTION     0.10     0.18    30.18     0  07:31        0.18
  CSO7                 JUNCTION     0.07     0.10    34.10     0  01:35        0.10
  CSO8                 JUNCTION     0.11     0.18    32.18     0  00:25        0.18
  CSO9                 JUNCTION     0.09     0.15    40.15     0  12:56        0.14
  J1                   JUNCTION     0.06     0.09    34.09     0  07:31        0.09
  J10                  JUNCTION     0.08     0.13    29.13     0  00:28        0.13
  J11                  JUNCTION     0.09     0.13    31.13     0  00:30        0.13
  J12                  JUNCTION     0.12     0.16    26.16     0  00:31        0.16
  J13                  JUNCTION     0.05     0.09    29.09     0  01:35        0.09
  J14                  JUNCTION     0.12     0.16    20.16     0  13:32        0.16
  J15                  JUNCTION     0.16     0.20    15.20     0  12:42        0.20
  J16                  JUNCTION     0.06     0.10    30.10     0  07:31        0.10
  J17                  JUNCTION     0.07     0.09    20.09     0  14:28        0.09
  J18                  JUNCTION     0.05     0.08    29.08     0  07:33        0.08
  J19                  JUNCTION     0.14     0.17     8.17     0  12:30        0.17
  J2                   JUNCTION     0.06     0.07    25.07     0  14:50        0.07
  J3                   JUNCTION     0.11     0.13    18.13     0  14:05        0.13
  J4                   JUNCTION     0.09     0.12    33.12     0  01:40        0.12
  J5                   JUNCTION     0.05     0.07    32.07     0  01:39        0.07
  J6                   JUNCTION     0.04     0.09    25.09     0  08:05        0.09
  J7                   JUNCTION     0.07     0.11    39.11     0  12:59        0.11
  J8                   JUNCTION     0.09     0.14    36.14     0  13:06        0.14
  J9                   JUNCTION     0.09     0.13    29.13     0  13:10        0.13
  Out_to_WWTP          OUTFALL      0.14     0.17     6.17     0  14:54        0.17
  T1                   STORAGE      2.97     5.00    15.00     0  12:29        5.00
  T2                   STORAGE      0.38     0.69    21.69     0  14:26        0.69
  T3                   STORAGE      1.56     2.75    24.75     0  13:55        2.75
  T4                   STORAGE      1.83     3.83    30.83     0  16:25        3.83
  T5                   STORAGE      1.73     3.13    30.13     0  14:49        3.13
  T6                   STORAGE      1.33     4.25    35.25     0  16:25        4.25
  
  
  *******************
  Node Inflow Summary
  *******************
  
  -------------------------------------------------------------------------------------------------
                                  Maximum  Maximum                  Lateral       Total        Flow
                                  Lateral    Total  Time of Max      Inflow      Inflow     Balance
                                   Inflow   Inflow   Occurrence      Volume      Volume       Error
  Node                 Type           CMS      CMS  days hr:min    10^6 ltr    10^6 ltr     Percent
  -------------------------------------------------------------------------------------------------
  CSO10                JUNCTION     0.051    0.051     0  07:30        1.13        1.13       0.044
  CSO7                 JUNCTION     0.019    0.019     0  01:35       0.629        0.63       0.085
  CSO8                 JUNCTION     0.099    0.099     0  00:25        2.32        2.32       0.023
  CSO9                 JUNCTION     0.032    0.032     0  12:55       0.762       0.762       0.068
  J1                   JUNCTION     0.072    0.072     0  07:30        1.89        1.89       0.042
  J10                  JUNCTION     0.115    0.189     0  00:26        1.79        4.11       0.142
  J11                  JUNCTION     0.000    0.099     0  00:25           0        2.32       0.251
  J12                  JUNCTION     0.000    0.219     0  13:10           0        7.14       0.202
  J13                  JUNCTION     0.099    0.099     0  01:35        2.13        2.13      -0.093
  J14                  JUNCTION     0.000    0.140     0  13:55           0           5       0.109
  J15                  JUNCTION     0.000    0.366     0  12:41           0        13.3       0.536
  J16                  JUNCTION     0.152    0.152     0  07:30        3.36        3.36       0.017
  J17                  JUNCTION     0.000    0.051     0  14:27           0        2.03       0.325
  J18                  JUNCTION     0.000    0.051     0  07:31           0        1.13       0.144
  J19                  JUNCTION     0.000    0.271     0  12:30           0        11.7       0.101
  J2                   JUNCTION     0.000    0.031     0  14:49           0        1.31       0.345
  J3                   JUNCTION     0.000    0.186     0  13:58           0        6.85       0.414
  J4                   JUNCTION     0.000    0.019     0  01:35           0       0.629       0.667
  J5                   JUNCTION     0.021    0.038     0  01:37       0.619        1.24       0.174
  J6                   JUNCTION     0.000    0.044     0  08:00           0       0.563       0.411
  J7                   JUNCTION     0.000    0.032     0  12:56           0       0.761       0.482
  J8                   JUNCTION     0.143    0.173     0  12:55        3.56        4.32       0.175
  J9                   JUNCTION     0.000    0.108     0  13:10           0        3.05       0.259
  Out_to_WWTP          OUTFALL      0.000    0.271     0  12:31           0        11.7       0.000
  T1                   STORAGE      0.000    0.355     0  12:42           0        13.3       5.551
  T2                   STORAGE      0.000    0.098     0  01:35           0        2.13       1.492
  T3                   STORAGE      0.000    0.212     0  13:10           0        7.13      12.096
  T4                   STORAGE      0.000    0.038     0  01:39           0        1.24      31.304
  T5                   STORAGE      0.000    0.072     0  07:31           0        1.89      18.382
  T6                   STORAGE      0.000    0.173     0  13:06           0        4.31      21.157
  
  
  **********************
  Node Surcharge Summary
  **********************
  
  No nodes were surcharged.
  
  
  *********************
  Node Flooding Summary
  *********************
  
  Flooding refers to all water that overflows a node, whether it ponds or not.
  --------------------------------------------------------------------------
                                                             Total   Maximum
                                 Maximum   Time of Max       Flood    Ponded
                        Hours       Rate    Occurrence      Volume     Depth
  Node                 Flooded       CMS   days hr:min    10^6 ltr    Meters
  --------------------------------------------------------------------------
  T1                      2.02     0.085      0  12:43       0.323     0.000
  
  
  **********************
  Storage Volume Summary
  **********************
  
  --------------------------------------------------------------------------------------------------
                         Average     Avg  Evap Exfil       Maximum     Max    Time of Max    Maximum
                          Volume    Pcnt  Pcnt  Pcnt        Volume    Pcnt     Occurrence    Outflow
  Storage Unit           1000 m3    Full  Loss  Loss       1000 m3    Full    days hr:min        CMS
  --------------------------------------------------------------------------------------------------
  T1                       0.416      59     0     0         0.700     100       0  12:29      0.271
  T2                       0.076       8     0     0         0.138      14       0  14:26      0.051
  T3                       0.812      31     0     0         1.432      55       0  13:55      0.140
  T4                       0.183      37     0     0         0.383      77       0  16:25      0.044
  T5                       0.173      35     0     0         0.313      63       0  14:49      0.031
  T6                       0.160      27     0     0         0.510      85       0  16:25      0.108
  
  
  ***********************
  Outfall Loading Summary
  ***********************
  
  -----------------------------------------------------------
                         Flow       Avg       Max       Total
                         Freq      Flow      Flow      Volume
  Outfall Node           Pcnt       CMS       CMS    10^6 ltr
  -----------------------------------------------------------
  Out_to_WWTP           99.46     0.198     0.271      11.652
  -----------------------------------------------------------
  System                99.46     0.198     0.271      11.652
  
  
  ********************
  Link Flow Summary
  ********************
  
  -----------------------------------------------------------------------------
                                 Maximum  Time of Max   Maximum    Max/    Max/
                                  |Flow|   Occurrence   |Veloc|    Full    Full
  Link                 Type          CMS  days hr:min     m/sec    Flow   Depth
  -----------------------------------------------------------------------------
  C1                   CONDUIT     0.031     0  14:50      0.94    0.01    0.10
  C10                  CONDUIT     0.173     0  13:06      1.59    0.02    0.55
  C11                  CONDUIT     0.183     0  14:05      1.55    0.01    0.08
  C12                  CONDUIT     0.107     0  13:10      1.12    0.01    0.07
  C13                  CONDUIT     0.212     0  13:10      2.29    0.01    0.54
  C14                  CONDUIT     0.271     0  12:31      2.08    0.02    0.09
  C15                  CONDUIT     0.099     0  00:25      2.06    0.32    0.34
  C16                  CONDUIT     0.090     0  00:30      1.01    0.01    0.07
  C17                  CONDUIT     0.184     0  00:29      1.98    0.01    0.07
  C18                  CONDUIT     0.098     0  01:35      4.72    0.00    0.19
  C19                  CONDUIT     0.051     0  14:28      0.86    0.02    0.14
  C2                   CONDUIT     0.043     0  08:05      1.29    0.05    0.18
  C20                  CONDUIT     0.152     0  07:31      3.71    0.00    0.07
  C21                  CONDUIT     0.051     0  07:31      1.34    0.29    0.30
  C22                  CONDUIT     0.050     0  07:34      0.97    0.02    0.17
  C23                  CONDUIT     0.355     0  12:42      1.93    0.04    0.57
  C3                   CONDUIT     0.141     0  13:48      2.01    0.05    0.15
  C4                   CONDUIT     0.072     0  07:31      4.05    0.02    0.55
  C5                   CONDUIT     0.019     0  01:35      1.16    0.33    0.43
  C6                   CONDUIT     0.018     0  01:40      0.97    0.29    0.31
  C7                   CONDUIT     0.038     0  01:39      1.38    0.01    0.53
  C8                   CONDUIT     0.032     0  12:56      1.07    0.40    0.40
  C9                   CONDUIT     0.031     0  12:59      0.82    0.11    0.25
  V1                   ORIFICE     0.271     0  12:30                      1.00
  V2                   ORIFICE     0.051     0  14:27                      1.00
  V3                   ORIFICE     0.140     0  13:55                      1.00
  V4                   ORIFICE     0.044     0  08:00                      1.00
  V5                   ORIFICE     0.031     0  14:49                      1.00
  V6                   ORIFICE     0.108     0  13:10                      1.00
  
  
  ***************************
  Flow Classification Summary
  ***************************
  
  -------------------------------------------------------------------------------------
                      Adjusted    ---------- Fraction of Time in Flow Class ---------- 
                       /Actual         Up    Down  Sub   Sup   Up    Down  Norm  Inlet 
  Conduit               Length    Dry  Dry   Dry   Crit  Crit  Crit  Crit  Ltd   Ctrl  
  -------------------------------------------------------------------------------------
  C1                      1.00   0.00  0.00  0.00  0.69  0.30  0.00  0.00  0.97  0.00
  C10                     1.00   0.00  0.00  0.00  0.97  0.03  0.00  0.00  0.99  0.00
  C11                     1.00   0.00  0.00  0.00  0.12  0.88  0.00  0.00  1.00  0.00
  C12                     1.00   0.00  0.00  0.00  0.58  0.42  0.00  0.00  0.98  0.00
  C13                     1.00   0.00  0.00  0.00  0.96  0.04  0.00  0.00  0.96  0.00
  C14                     1.00   0.00  0.00  0.00  0.00  0.99  0.00  0.00  0.53  0.00
  C15                     1.00   0.00  0.00  0.00  0.00  1.00  0.00  0.00  0.00  0.00
  C16                     1.00   0.00  0.00  0.00  0.24  0.76  0.00  0.00  0.14  0.00
  C17                     1.00   0.00  0.00  0.00  0.06  0.94  0.00  0.00  0.98  0.00
  C18                     1.00   0.00  0.00  0.00  0.92  0.08  0.00  0.00  0.98  0.00
  C19                     1.00   0.00  0.00  0.00  1.00  0.00  0.00  0.00  1.00  0.00
  C2                      1.00   0.00  0.00  0.00  0.94  0.06  0.00  0.00  0.99  0.00
  C20                     1.00   0.00  0.00  0.00  0.66  0.34  0.00  0.00  0.99  0.00
  C21                     1.00   0.00  0.00  0.00  0.00  1.00  0.00  0.00  0.00  0.00
  C22                     1.00   0.00  0.00  0.00  0.97  0.03  0.00  0.00  1.00  0.00
  C23                     1.00   0.00  0.00  0.00  0.97  0.03  0.00  0.00  0.98  0.00
  C3                      1.00   0.00  0.00  0.00  0.02  0.97  0.00  0.00  0.06  0.00
  C4                      1.00   0.00  0.00  0.00  0.98  0.02  0.00  0.00  0.99  0.00
  C5                      1.00   0.00  0.00  0.00  0.82  0.18  0.00  0.00  0.99  0.00
  C6                      1.00   0.00  0.00  0.00  0.00  0.99  0.00  0.00  0.00  0.00
  C7                      1.00   0.00  0.00  0.00  0.96  0.04  0.00  0.00  0.98  0.00
  C8                      1.00   0.00  0.00  0.00  0.03  0.97  0.00  0.00  0.00  0.00
  C9                      1.00   0.00  0.00  0.00  1.00  0.00  0.00  0.00  1.00  0.00
  
  
  *************************
  Conduit Surcharge Summary
  *************************
  
  ----------------------------------------------------------------------------
                                                           Hours        Hours 
                         --------- Hours Full --------   Above Full   Capacity
  Conduit                Both Ends  Upstream  Dnstream   Normal Flow   Limited
  ----------------------------------------------------------------------------
  C10                         0.01      0.01      3.91      0.01         0.01
  C13                         0.01      0.01      5.55      0.01         0.01
  C23                         0.01      0.01     13.00      0.01         0.01
  C4                          0.01      0.01     12.29      0.01         0.01
  C7                          0.01      0.01     13.13      0.01         0.01
  

  Analysis begun on:  Sun Jul 17 19:42:39 2022
  Analysis ended on:  Sun Jul 17 19:42:42 2022
  Total elapsed time: 00:00:03