
  EPA STORM WATER MANAGEMENT MODEL - VERSION 5.1 (Build 5.3.0.dev0)
  --------------------------------------------------------------

  
  *********************************************************
  NOTE: The summary statistics displayed in this report are
  based on results found at every computational time step,  
  not just on results from each reporting time step.
  *********************************************************
  
  ****************
  Analysis Options
  ****************
  Flow Units ............... CMS
  Process Models:
    Rainfall/Runoff ........ YES
    RDII ................... NO
    Snowmelt ............... NO
    Groundwater ............ NO
    Flow Routing ........... YES
    Ponding Allowed ........ NO
    Water Quality .......... NO
  Infiltration Method ...... HORTON
  Flow Routing Method ...... DYNWAVE
  Surcharge Method ......... EXTRAN
  Starting Date ............ 11/19/2007 15:35:00
  Ending Date .............. 11/20/2007 09:00:00
  Antecedent Dry Days ...... 0.0
  Report Time Step ......... 00:05:00
  Wet Time Step ............ 00:05:00
  Dry Time Step ............ 01:00:00
  Routing Time Step ........ 30.00 sec
  Variable Time Step ....... YES
  Maximum Trials ........... 8
  Number of Threads ........ 1
  Head Tolerance ........... 0.001500 m
  
  
  **************************        Volume         Depth
  Runoff Quantity Continuity     hectare-m            mm
  **************************     ---------       -------
  Total Precipitation ......         1.096         6.082
  Evaporation Loss .........         0.000         0.000
  Infiltration Loss ........         0.000         0.000
  Surface Runoff ...........         1.070         5.939
  Final Storage ............         0.027         0.148
  Continuity Error (%) .....        -0.098
  
  
  **************************        Volume        Volume
  Flow Routing Continuity        hectare-m      10^6 ltr
  **************************     ---------     ---------
  Dry Weather Inflow .......         0.416         4.163
  Wet Weather Inflow .......         1.070        10.700
  Groundwater Inflow .......         0.000         0.000
  RDII Inflow ..............         0.000         0.000
  External Inflow ..........         0.000         0.000
  External Outflow .........         1.168        11.684
  Flooding Loss ............         0.012         0.118
  Evaporation Loss .........         0.000         0.000
  Exfiltration Loss ........         0.000         0.000
  Initial Stored Volume ....         0.000         0.000
  Final Stored Volume ......         0.289         2.889
  Continuity Error (%) .....         1.162
  
  
  *************************
  Highest Continuity Errors
  *************************
  Node T4 (18.20%)
  Node T5 (9.94%)
  Node T3 (8.58%)
  Node T1 (3.03%)
  Node J17 (1.02%)
  
  
  ***************************
  Time-Step Critical Elements
  ***************************
  Link C15 (22.21%)
  
  
  ********************************
  Highest Flow Instability Indexes
  ********************************
  Link C20 (3)
  Link C23 (2)
  Link C15 (2)
  Link C11 (2)
  Link C2 (2)
  
  
  *************************
  Routing Time Step Summary
  *************************
  Minimum Time Step           :     0.10 sec
  Average Time Step           :    28.95 sec
  Maximum Time Step           :    30.00 sec
  Percent in Steady State     :     6.75
  Average Iterations per Step :     2.01
  Percent Not Converging      :     0.00
  
  
  ***************************
  Subcatchment Runoff Summary
  ***************************
  
  ------------------------------------------------------------------------------------------------------------------------------
                            Total      Total      Total      Total     Imperv       Perv      Total       Total     Peak  Runoff
                           Precip      Runon       Evap      Infil     Runoff     Runoff     Runoff      Runoff   Runoff   Coeff
  Subcatchment                 mm         mm         mm         mm         mm         mm         mm    10^6 ltr      CMS
  ------------------------------------------------------------------------------------------------------------------------------
  SC01                       6.45       0.00       0.00       0.00       6.34       0.00       6.34        2.09     0.13   0.983
  SC010                      6.45       0.00       0.00       0.00       6.30       0.00       6.30        0.74     0.04   0.977
  SC02                       5.72       0.00       0.00       0.00       5.61       0.00       5.61        1.28     0.09   0.981
  SC03                       6.35       0.00       0.00       0.00       6.27       0.00       6.27        1.13     0.09   0.988
  SC04                       5.72       0.00       0.00       0.00       5.52       0.00       5.52        0.38     0.02   0.965
  SC05                       6.45       0.00       0.00       0.00       6.33       0.00       6.33        0.99     0.06   0.981
  SC06                       5.52       0.00       0.00       0.00       5.30       0.00       5.30        1.73     0.07   0.960
  SC07                       5.72       0.00       0.00       0.00       5.52       0.00       5.52        0.26     0.01   0.965
  SC08                       6.35       0.00       0.00       0.00       6.21       0.00       6.21        1.74     0.11   0.978
  SC09                       5.52       0.00       0.00       0.00       5.37       0.00       5.37        0.37     0.02   0.973
  
  
  ******************
  Node Depth Summary
  ******************
  
  ---------------------------------------------------------------------------------
                                 Average  Maximum  Maximum  Time of Max    Reported
                                   Depth    Depth      HGL   Occurrence   Max Depth
  Node                 Type       Meters   Meters   Meters  days hr:min      Meters
  ---------------------------------------------------------------------------------
  CSO10                JUNCTION     0.09     0.16    30.16     0  07:05        0.16
  CSO7                 JUNCTION     0.07     0.10    34.10     0  04:01        0.10
  CSO8                 JUNCTION     0.09     0.19    32.19     0  03:50        0.19
  CSO9                 JUNCTION     0.07     0.12    40.12     0  04:00        0.12
  J1                   JUNCTION     0.05     0.09    34.09     0  03:02        0.09
  J10                  JUNCTION     0.07     0.14    29.14     0  03:54        0.14
  J11                  JUNCTION     0.08     0.15    31.15     0  03:54        0.14
  J12                  JUNCTION     0.11     0.17    26.17     0  03:57        0.17
  J13                  JUNCTION     0.05     0.09    29.09     0  03:10        0.09
  J14                  JUNCTION     0.12     0.16    20.16     0  08:50        0.16
  J15                  JUNCTION     0.15     0.21    15.21     0  07:14        0.21
  J16                  JUNCTION     0.05     0.09    30.09     0  07:02        0.09
  J17                  JUNCTION     0.07     0.10    20.10     0  08:48        0.10
  J18                  JUNCTION     0.04     0.08    29.08     0  07:06        0.08
  J19                  JUNCTION     0.14     0.17     8.17     0  08:50        0.17
  J2                   JUNCTION     0.06     0.07    25.07     0  09:06        0.07
  J3                   JUNCTION     0.10     0.13    18.13     0  09:17        0.13
  J4                   JUNCTION     0.08     0.12    33.12     0  04:06        0.12
  J5                   JUNCTION     0.05     0.07    32.07     0  04:05        0.07
  J6                   JUNCTION     0.04     0.08    25.08     0  05:00        0.08
  J7                   JUNCTION     0.06     0.09    39.09     0  04:04        0.09
  J8                   JUNCTION     0.08     0.11    36.11     0  04:03        0.11
  J9                   JUNCTION     0.09     0.11    29.11     0  08:10        0.11
  Out_to_WWTP          OUTFALL      0.14     0.17     6.17     0  10:28        0.17
  T1                   STORAGE      2.75     5.00    15.00     0  08:49        5.00
  T2                   STORAGE      0.40     1.05    22.05     0  08:30        1.05
  T3                   STORAGE      1.51     2.34    24.34     0  08:51        2.34
  T4                   STORAGE      1.63     2.49    29.49     0  09:05        2.49
  T5                   STORAGE      1.52     2.56    29.56     0  09:04        2.56
  T6                   STORAGE      0.76     1.08    32.08     0  08:07        1.08
  
  
  *******************
  Node Inflow Summary
  *******************
  
  -------------------------------------------------------------------------------------------------
                                  Maximum  Maximum                  Lateral       Total        Flow
                                  Lateral    Total  Time of Max      Inflow      Inflow     Balance
                                   Inflow   Inflow   Occurrence      Volume      Volume       Error
  Node                 Type           CMS      CMS  days hr:min    10^6 ltr    10^6 ltr     Percent
  -------------------------------------------------------------------------------------------------
  CSO10                JUNCTION     0.043    0.043     0  07:05       0.891       0.892      -0.048
  CSO7                 JUNCTION     0.020    0.020     0  04:00       0.576       0.576      -0.023
  CSO8                 JUNCTION     0.113    0.113     0  03:50        1.94        1.94       0.090
  CSO9                 JUNCTION     0.022    0.022     0  04:00       0.583       0.584      -0.023
  J1                   JUNCTION     0.064    0.064     0  03:00        1.59         1.6      -0.113
  J10                  JUNCTION     0.096    0.196     0  03:51        1.55        3.48       0.266
  J11                  JUNCTION     0.000    0.113     0  03:50           0        1.94       0.481
  J12                  JUNCTION     0.000    0.265     0  03:54           0         6.7       0.518
  J13                  JUNCTION     0.099    0.099     0  03:10        1.78        1.78      -0.221
  J14                  JUNCTION     0.000    0.129     0  08:52           0        5.23       0.100
  J15                  JUNCTION     0.000    0.371     0  07:10           0        12.5       0.339
  J16                  JUNCTION     0.132    0.132     0  07:00        2.69        2.69      -0.135
  J17                  JUNCTION     0.000    0.064     0  08:30           0        1.78       1.033
  J18                  JUNCTION     0.000    0.043     0  07:05           0       0.892      -0.033
  J19                  JUNCTION     0.000    0.271     0  08:49           0        11.7       0.077
  J2                   JUNCTION     0.000    0.028     0  09:04           0         1.3       0.272
  J3                   JUNCTION     0.000    0.177     0  09:13           0        7.16       0.244
  J4                   JUNCTION     0.000    0.020     0  04:01           0       0.577       0.678
  J5                   JUNCTION     0.021    0.040     0  04:05       0.519        1.09       0.135
  J6                   JUNCTION     0.000    0.039     0  04:55           0       0.652       0.861
  J7                   JUNCTION     0.000    0.022     0  04:01           0       0.584       0.596
  J8                   JUNCTION     0.095    0.115     0  04:00        2.74        3.33       0.119
  J9                   JUNCTION     0.000    0.080     0  08:08           0        3.23       0.122
  Out_to_WWTP          OUTFALL      0.000    0.271     0  08:50           0        11.7       0.000
  T1                   STORAGE      0.000    0.365     0  07:15           0        12.5       3.123
  T2                   STORAGE      0.000    0.098     0  03:11           0        1.79      -0.677
  T3                   STORAGE      0.000    0.262     0  03:57           0        6.67       9.389
  T4                   STORAGE      0.000    0.040     0  04:06           0        1.09      22.254
  T5                   STORAGE      0.000    0.063     0  03:02           0         1.6      11.034
  T6                   STORAGE      0.000    0.114     0  04:03           0        3.32       0.708
  
  
  **********************
  Node Surcharge Summary
  **********************
  
  No nodes were surcharged.
  
  
  *********************
  Node Flooding Summary
  *********************
  
  Flooding refers to all water that overflows a node, whether it ponds or not.
  --------------------------------------------------------------------------
                                                             Total   Maximum
                                 Maximum   Time of Max       Flood    Ponded
                        Hours       Rate    Occurrence      Volume     Depth
  Node                 Flooded       CMS   days hr:min    10^6 ltr    Meters
  --------------------------------------------------------------------------
  T1                      1.27     0.063      0  08:53       0.118     0.000
  
  
  **********************
  Storage Volume Summary
  **********************
  
  --------------------------------------------------------------------------------------------------
                         Average     Avg  Evap Exfil       Maximum     Max    Time of Max    Maximum
                          Volume    Pcnt  Pcnt  Pcnt        Volume    Pcnt     Occurrence    Outflow
  Storage Unit           1000 m3    Full  Loss  Loss       1000 m3    Full    days hr:min        CMS
  --------------------------------------------------------------------------------------------------
  T1                       0.385      55     0     0         0.700     100       0  08:49      0.271
  T2                       0.079       8     0     0         0.209      21       0  08:30      0.064
  T3                       0.786      30     0     0         1.217      47       0  08:51      0.129
  T4                       0.163      33     0     0         0.249      50       0  09:05      0.039
  T5                       0.152      30     0     0         0.256      51       0  09:04      0.028
  T6                       0.091      15     0     0         0.130      22       0  08:07      0.080
  
  
  ***********************
  Outfall Loading Summary
  ***********************
  
  -----------------------------------------------------------
                         Flow       Avg       Max       Total
                         Freq      Flow      Flow      Volume
  Outfall Node           Pcnt       CMS       CMS    10^6 ltr
  -----------------------------------------------------------
  Out_to_WWTP           99.49     0.187     0.271      11.684
  -----------------------------------------------------------
  System                99.49     0.187     0.271      11.684
  
  
  ********************
  Link Flow Summary
  ********************
  
  -----------------------------------------------------------------------------
                                 Maximum  Time of Max   Maximum    Max/    Max/
                                  |Flow|   Occurrence   |Veloc|    Full    Full
  Link                 Type          CMS  days hr:min     m/sec    Flow   Depth
  -----------------------------------------------------------------------------
  C1                   CONDUIT     0.028     0  09:06      0.91    0.01    0.10
  C10                  CONDUIT     0.114     0  04:03      1.62    0.01    0.39
  C11                  CONDUIT     0.176     0  09:18      1.68    0.01    0.08
  C12                  CONDUIT     0.080     0  08:11      1.23    0.01    0.07
  C13                  CONDUIT     0.262     0  03:57      1.42    0.02    0.54
  C14                  CONDUIT     0.271     0  08:50      2.08    0.02    0.09
  C15                  CONDUIT     0.113     0  03:50      2.05    0.36    0.37
  C16                  CONDUIT     0.109     0  03:54      1.11    0.01    0.07
  C17                  CONDUIT     0.194     0  03:54      1.74    0.01    0.08
  C18                  CONDUIT     0.098     0  03:11      3.92    0.00    0.28
  C19                  CONDUIT     0.062     0  08:48      0.88    0.02    0.15
  C2                   CONDUIT     0.037     0  05:00      1.12    0.04    0.17
  C20                  CONDUIT     0.131     0  07:02      3.28    0.00    0.07
  C21                  CONDUIT     0.043     0  07:05      1.29    0.25    0.27
  C22                  CONDUIT     0.043     0  07:06      0.83    0.02    0.18
  C23                  CONDUIT     0.365     0  07:15      1.24    0.04    0.57
  C3                   CONDUIT     0.129     0  08:52      1.89    0.05    0.14
  C4                   CONDUIT     0.063     0  03:02      3.48    0.02    0.54
  C5                   CONDUIT     0.020     0  04:01      1.20    0.34    0.44
  C6                   CONDUIT     0.019     0  04:07      0.99    0.31    0.32
  C7                   CONDUIT     0.040     0  04:06      1.41    0.01    0.53
  C8                   CONDUIT     0.022     0  04:01      0.97    0.28    0.33
  C9                   CONDUIT     0.021     0  04:04      0.73    0.07    0.21
  V1                   ORIFICE     0.271     0  08:49                      1.00
  V2                   ORIFICE     0.064     0  08:30                      1.00
  V3                   ORIFICE     0.129     0  08:52                      1.00
  V4                   ORIFICE     0.039     0  04:55                      1.00
  V5                   ORIFICE     0.028     0  09:04                      1.00
  V6                   ORIFICE     0.080     0  08:08                      1.00
  
  
  ***************************
  Flow Classification Summary
  ***************************
  
  -------------------------------------------------------------------------------------
                      Adjusted    ---------- Fraction of Time in Flow Class ---------- 
                       /Actual         Up    Down  Sub   Sup   Up    Down  Norm  Inlet 
  Conduit               Length    Dry  Dry   Dry   Crit  Crit  Crit  Crit  Ltd   Ctrl  
  -------------------------------------------------------------------------------------
  C1                      1.00   0.00  0.00  0.00  0.82  0.18  0.00  0.00  0.98  0.00
  C10                     1.00   0.00  0.00  0.00  0.98  0.02  0.00  0.00  0.99  0.00
  C11                     1.00   0.00  0.00  0.00  0.09  0.91  0.00  0.00  1.00  0.00
  C12                     1.00   0.00  0.00  0.00  0.48  0.52  0.00  0.00  0.95  0.00
  C13                     1.00   0.00  0.00  0.00  0.93  0.06  0.00  0.00  0.96  0.00
  C14                     1.00   0.00  0.00  0.00  0.00  0.99  0.00  0.00  0.66  0.00
  C15                     1.00   0.00  0.00  0.00  0.00  1.00  0.00  0.00  0.00  0.00
  C16                     1.00   0.00  0.00  0.00  0.42  0.58  0.00  0.00  0.20  0.00
  C17                     1.00   0.00  0.00  0.00  0.12  0.88  0.00  0.00  0.99  0.00
  C18                     1.00   0.00  0.00  0.00  0.80  0.20  0.00  0.00  0.99  0.00
  C19                     1.00   0.00  0.00  0.00  1.00  0.00  0.00  0.00  1.00  0.00
  C2                      1.00   0.00  0.00  0.00  0.84  0.16  0.00  0.00  0.98  0.00
  C20                     1.00   0.00  0.00  0.00  0.73  0.27  0.00  0.00  0.99  0.00
  C21                     1.00   0.00  0.00  0.00  0.00  1.00  0.00  0.00  0.00  0.00
  C22                     1.00   0.00  0.00  0.00  0.99  0.01  0.00  0.00  1.00  0.00
  C23                     1.00   0.00  0.00  0.00  0.95  0.05  0.00  0.00  0.98  0.00
  C3                      1.00   0.00  0.00  0.00  0.03  0.97  0.00  0.00  0.15  0.00
  C4                      1.00   0.00  0.00  0.00  0.98  0.02  0.00  0.00  0.99  0.00
  C5                      1.00   0.00  0.00  0.00  0.87  0.13  0.00  0.00  0.99  0.00
  C6                      1.00   0.00  0.00  0.00  0.00  0.99  0.00  0.00  0.00  0.00
  C7                      1.00   0.00  0.00  0.00  0.96  0.04  0.00  0.00  0.98  0.00
  C8                      1.00   0.00  0.00  0.00  0.02  0.98  0.00  0.00  0.00  0.00
  C9                      1.00   0.00  0.00  0.00  1.00  0.00  0.00  0.00  1.00  0.00
  
  
  *************************
  Conduit Surcharge Summary
  *************************
  
  ----------------------------------------------------------------------------
                                                           Hours        Hours 
                         --------- Hours Full --------   Above Full   Capacity
  Conduit                Both Ends  Upstream  Dnstream   Normal Flow   Limited
  ----------------------------------------------------------------------------
  C13                         0.01      0.01      4.89      0.01         0.01
  C23                         0.01      0.01     13.80      0.01         0.01
  C4                          0.01      0.01     13.95      0.01         0.01
  C7                          0.01      0.01     12.97      0.01         0.01
  

  Analysis begun on:  Sun Jul 17 20:23:46 2022
  Analysis ended on:  Sun Jul 17 20:23:49 2022
  Total elapsed time: 00:00:03