
  EPA STORM WATER MANAGEMENT MODEL - VERSION 5.1 (Build 5.3.0.dev0)
  --------------------------------------------------------------

  
  *********************************************************
  NOTE: The summary statistics displayed in this report are
  based on results found at every computational time step,  
  not just on results from each reporting time step.
  *********************************************************
  
  ****************
  Analysis Options
  ****************
  Flow Units ............... CMS
  Process Models:
    Rainfall/Runoff ........ YES
    RDII ................... NO
    Snowmelt ............... NO
    Groundwater ............ NO
    Flow Routing ........... YES
    Ponding Allowed ........ NO
    Water Quality .......... NO
  Infiltration Method ...... HORTON
  Flow Routing Method ...... DYNWAVE
  Surcharge Method ......... EXTRAN
  Starting Date ............ 07/01/2008 00:00:00
  Ending Date .............. 07/01/2008 18:55:00
  Antecedent Dry Days ...... 0.0
  Report Time Step ......... 00:05:00
  Wet Time Step ............ 00:05:00
  Dry Time Step ............ 01:00:00
  Routing Time Step ........ 30.00 sec
  Variable Time Step ....... YES
  Maximum Trials ........... 8
  Number of Threads ........ 1
  Head Tolerance ........... 0.001500 m
  
  
  **************************        Volume         Depth
  Runoff Quantity Continuity     hectare-m            mm
  **************************     ---------       -------
  Total Precipitation ......         1.093         6.065
  Evaporation Loss .........         0.000         0.000
  Infiltration Loss ........         0.000         0.000
  Surface Runoff ...........         1.073         5.957
  Final Storage ............         0.022         0.124
  Continuity Error (%) .....        -0.270
  
  
  **************************        Volume        Volume
  Flow Routing Continuity        hectare-m      10^6 ltr
  **************************     ---------     ---------
  Dry Weather Inflow .......         0.655         6.555
  Wet Weather Inflow .......         1.073        10.735
  Groundwater Inflow .......         0.000         0.000
  RDII Inflow ..............         0.000         0.000
  External Inflow ..........         0.000         0.000
  External Outflow .........         1.074        10.741
  Flooding Loss ............         0.003         0.030
  Evaporation Loss .........         0.000         0.000
  Exfiltration Loss ........         0.000         0.000
  Initial Stored Volume ....         0.000         0.000
  Final Stored Volume ......         0.513         5.133
  Continuity Error (%) .....         8.014
  
  
  *************************
  Highest Continuity Errors
  *************************
  Node T4 (20.18%)
  Node T6 (19.44%)
  Node T3 (12.47%)
  Node T5 (10.18%)
  Node J12 (3.69%)
  
  
  ***************************
  Time-Step Critical Elements
  ***************************
  Link C15 (22.09%)
  
  
  ********************************
  Highest Flow Instability Indexes
  ********************************
  Link C13 (5)
  Link C11 (3)
  Link C23 (3)
  Link V3 (2)
  Link C3 (2)
  
  
  *************************
  Routing Time Step Summary
  *************************
  Minimum Time Step           :     0.22 sec
  Average Time Step           :    27.89 sec
  Maximum Time Step           :    30.00 sec
  Percent in Steady State     :     3.17
  Average Iterations per Step :     2.11
  Percent Not Converging      :     0.08
  
  
  ***************************
  Subcatchment Runoff Summary
  ***************************
  
  ------------------------------------------------------------------------------------------------------------------------------
                            Total      Total      Total      Total     Imperv       Perv      Total       Total     Peak  Runoff
                           Precip      Runon       Evap      Infil     Runoff     Runoff     Runoff      Runoff   Runoff   Coeff
  Subcatchment                 mm         mm         mm         mm         mm         mm         mm    10^6 ltr      CMS
  ------------------------------------------------------------------------------------------------------------------------------
  SC01                       3.62       0.00       0.00       0.00       3.52       0.00       3.52        1.16     0.16   0.974
  SC010                      3.62       0.00       0.00       0.00       3.49       0.00       3.49        0.41     0.04   0.965
  SC02                       5.73       0.00       0.00       0.00       5.65       0.00       5.65        1.29     0.17   0.986
  SC03                       8.48       0.00       0.00       0.00       8.45       0.00       8.45        1.52     0.39   0.997
  SC04                       5.73       0.00       0.00       0.00       5.56       0.00       5.56        0.38     0.04   0.970
  SC05                       3.62       0.00       0.00       0.00       3.52       0.00       3.52        0.55     0.07   0.972
  SC06                       7.28       0.00       0.00       0.00       7.09       0.00       7.09        2.31     0.27   0.975
  SC07                       5.73       0.00       0.00       0.00       5.56       0.00       5.56        0.26     0.03   0.970
  SC08                       8.48       0.00       0.00       0.00       8.40       0.00       8.40        2.35     0.42   0.991
  SC09                       7.28       0.00       0.00       0.00       7.17       0.00       7.17        0.49     0.07   0.985
  
  
  ******************
  Node Depth Summary
  ******************
  
  ---------------------------------------------------------------------------------
                                 Average  Maximum  Maximum  Time of Max    Reported
                                   Depth    Depth      HGL   Occurrence   Max Depth
  Node                 Type       Meters   Meters   Meters  days hr:min      Meters
  ---------------------------------------------------------------------------------
  CSO10                JUNCTION     0.07     0.16    30.16     0  00:37        0.16
  CSO7                 JUNCTION     0.07     0.12    34.12     0  00:51        0.12
  CSO8                 JUNCTION     0.13     1.69    33.69     0  12:10        1.69
  CSO9                 JUNCTION     0.08     0.28    40.28     0  12:31        0.28
  J1                   JUNCTION     0.05     0.10    34.10     0  12:15        0.10
  J10                  JUNCTION     0.08     0.27    29.27     0  12:03        0.27
  J11                  JUNCTION     0.08     0.28    31.28     0  12:10        0.28
  J12                  JUNCTION     0.17     0.35    26.35     0  13:48        0.35
  J13                  JUNCTION     0.05     0.11    29.11     0  00:41        0.11
  J14                  JUNCTION     0.11     0.17    20.17     0  12:25        0.17
  J15                  JUNCTION     0.14     0.21    15.21     0  12:25        0.21
  J16                  JUNCTION     0.04     0.10    30.10     0  00:36        0.10
  J17                  JUNCTION     0.07     0.11    20.11     0  03:07        0.11
  J18                  JUNCTION     0.04     0.08    29.08     0  00:41        0.08
  J19                  JUNCTION     0.13     0.15     8.15     0  12:52        0.15
  J2                   JUNCTION     0.05     0.06    25.06     0  14:05        0.06
  J3                   JUNCTION     0.10     0.13    18.13     0  12:25        0.13
  J4                   JUNCTION     0.09     0.14    33.14     0  00:53        0.14
  J5                   JUNCTION     0.05     0.09    32.09     0  00:52        0.09
  J6                   JUNCTION     0.05     0.09    25.09     0  02:35        0.09
  J7                   JUNCTION     0.06     0.18    39.18     0  12:35        0.18
  J8                   JUNCTION     0.08     0.20    36.20     0  12:35        0.20
  J9                   JUNCTION     0.08     0.15    29.15     0  13:20        0.15
  Out_to_WWTP          OUTFALL      0.13     0.15     6.15     0  12:53        0.15
  T1                   STORAGE      1.86     3.10    13.10     0  12:52        3.10
  T2                   STORAGE      0.45     1.35    22.35     0  03:00        1.35
  T3                   STORAGE      2.23     4.36    26.36     0  13:43        4.35
  T4                   STORAGE      2.24     3.53    30.53     0  17:31        3.53
  T5                   STORAGE      1.08     1.92    28.92     0  14:03        1.92
  T6                   STORAGE      1.82     5.00    36.00     0  16:41        5.00
  
  
  *******************
  Node Inflow Summary
  *******************
  
  -------------------------------------------------------------------------------------------------
                                  Maximum  Maximum                  Lateral       Total        Flow
                                  Lateral    Total  Time of Max      Inflow      Inflow     Balance
                                   Inflow   Inflow   Occurrence      Volume      Volume       Error
  Node                 Type           CMS      CMS  days hr:min    10^6 ltr    10^6 ltr     Percent
  -------------------------------------------------------------------------------------------------
  CSO10                JUNCTION     0.043    0.043     0  12:15       0.642       0.643       0.099
  CSO7                 JUNCTION     0.027    0.027     0  00:50       0.748       0.748       0.099
  CSO8                 JUNCTION     0.430    0.430     0  12:10         2.8         2.8      -0.013
  CSO9                 JUNCTION     0.078    0.078     0  12:30       0.823       0.825       0.085
  J1                   JUNCTION     0.082    0.082     0  12:15        1.49        1.49       0.042
  J10                  JUNCTION     0.411    0.785     0  12:02        2.16        4.97      -0.070
  J11                  JUNCTION     0.000    0.430     0  12:10           0         2.8      -0.067
  J12                  JUNCTION     0.000    0.843     0  12:03           0         8.8       3.835
  J13                  JUNCTION     0.173    0.173     0  00:40        2.06        2.07      -0.294
  J14                  JUNCTION     0.000    0.149     0  12:25           0        4.55      -0.037
  J15                  JUNCTION     0.000    0.379     0  12:20           0        11.3       0.185
  J16                  JUNCTION     0.161    0.161     0  00:35        2.09        2.09       0.031
  J17                  JUNCTION     0.000    0.072     0  03:00           0        2.11       0.078
  J18                  JUNCTION     0.000    0.043     0  00:38           0       0.642       0.099
  J19                  JUNCTION     0.000    0.212     0  12:52           0        10.7       0.076
  J2                   JUNCTION     0.000    0.024     0  14:03           0        1.19       0.294
  J3                   JUNCTION     0.000    0.181     0  12:25           0        6.45      -0.262
  J4                   JUNCTION     0.000    0.026     0  00:51           0       0.748       0.446
  J5                   JUNCTION     0.037    0.062     0  00:50       0.596        1.34       0.029
  J6                   JUNCTION     0.000    0.042     0  02:30           0       0.718       0.285
  J7                   JUNCTION     0.000    0.078     0  12:31           0       0.824       0.227
  J8                   JUNCTION     0.311    0.389     0  12:35        3.88        4.71       0.072
  J9                   JUNCTION     0.000    0.157     0  13:36           0        3.16       0.126
  Out_to_WWTP          OUTFALL      0.000    0.212     0  12:53           0        10.7       0.000
  T1                   STORAGE      0.000    0.371     0  12:25           0        11.3       2.912
  T2                   STORAGE      0.000    0.171     0  00:41           0        2.07      -2.285
  T3                   STORAGE      0.000    0.819     0  12:08           0        8.47      14.241
  T4                   STORAGE      0.000    0.062     0  00:52           0        1.34      25.280
  T5                   STORAGE      0.000    0.081     0  12:16           0        1.49      11.329
  T6                   STORAGE      0.000    0.387     0  12:36           0        4.71      24.132
  
  
  **********************
  Node Surcharge Summary
  **********************
  
  Surcharging occurs when water rises above the top of the highest conduit.
  ---------------------------------------------------------------------
                                               Max. Height   Min. Depth
                                   Hours       Above Crown    Below Rim
  Node                 Type      Surcharged         Meters       Meters
  ---------------------------------------------------------------------
  CSO8                 JUNCTION        0.31          1.233        0.314
  
  
  *********************
  Node Flooding Summary
  *********************
  
  Flooding refers to all water that overflows a node, whether it ponds or not.
  --------------------------------------------------------------------------
                                                             Total   Maximum
                                 Maximum   Time of Max       Flood    Ponded
                        Hours       Rate    Occurrence      Volume     Depth
  Node                 Flooded       CMS   days hr:min    10^6 ltr    Meters
  --------------------------------------------------------------------------
  T6                      2.24     0.007      0  16:41       0.030     0.000
  
  
  **********************
  Storage Volume Summary
  **********************
  
  --------------------------------------------------------------------------------------------------
                         Average     Avg  Evap Exfil       Maximum     Max    Time of Max    Maximum
                          Volume    Pcnt  Pcnt  Pcnt        Volume    Pcnt     Occurrence    Outflow
  Storage Unit           1000 m3    Full  Loss  Loss       1000 m3    Full    days hr:min        CMS
  --------------------------------------------------------------------------------------------------
  T1                       0.260      37     0     0         0.434      62       0  12:52      0.212
  T2                       0.089       9     0     0         0.270      27       0  03:00      0.072
  T3                       1.159      45     0     0         2.266      87       0  13:43      0.232
  T4                       0.224      45     0     0         0.353      71       0  17:31      0.042
  T5                       0.108      22     0     0         0.192      38       0  14:03      0.024
  T6                       0.219      36     0     0         0.600     100       0  16:41      0.157
  
  
  ***********************
  Outfall Loading Summary
  ***********************
  
  -----------------------------------------------------------
                         Flow       Avg       Max       Total
                         Freq      Flow      Flow      Volume
  Outfall Node           Pcnt       CMS       CMS    10^6 ltr
  -----------------------------------------------------------
  Out_to_WWTP           99.18     0.160     0.212      10.741
  -----------------------------------------------------------
  System                99.18     0.160     0.212      10.741
  
  
  ********************
  Link Flow Summary
  ********************
  
  -----------------------------------------------------------------------------
                                 Maximum  Time of Max   Maximum    Max/    Max/
                                  |Flow|   Occurrence   |Veloc|    Full    Full
  Link                 Type          CMS  days hr:min     m/sec    Flow   Depth
  -----------------------------------------------------------------------------
  C1                   CONDUIT     0.024     0  14:06      0.93    0.01    0.10
  C10                  CONDUIT     0.387     0  12:36      2.35    0.04    0.57
  C11                  CONDUIT     0.178     0  12:25      1.61    0.01    0.09
  C12                  CONDUIT     0.149     0  13:20      1.22    0.01    0.12
  C13                  CONDUIT     0.819     0  12:08      1.59    0.05    0.59
  C14                  CONDUIT     0.212     0  12:53      1.93    0.01    0.08
  C15                  CONDUIT     0.430     0  12:10      3.16    1.37    0.81
  C16                  CONDUIT     0.425     0  12:10      1.68    0.04    0.14
  C17                  CONDUIT     0.775     0  12:03      2.98    0.04    0.14
  C18                  CONDUIT     0.171     0  00:41      2.43    0.01    0.35
  C19                  CONDUIT     0.071     0  03:08      1.35    0.02    0.14
  C2                   CONDUIT     0.040     0  02:35      1.61    0.05    0.16
  C20                  CONDUIT     0.159     0  00:37      2.73    0.00    0.07
  C21                  CONDUIT     0.043     0  00:38      1.30    0.25    0.27
  C22                  CONDUIT     0.042     0  00:41      0.98    0.02    0.17
  C23                  CONDUIT     0.371     0  12:25      2.07    0.04    0.57
  C3                   CONDUIT     0.149     0  12:25      2.04    0.06    0.15
  C4                   CONDUIT     0.081     0  12:16      2.03    0.02    0.55
  C5                   CONDUIT     0.026     0  00:51      1.24    0.45    0.51
  C6                   CONDUIT     0.026     0  00:53      1.04    0.41    0.38
  C7                   CONDUIT     0.062     0  00:52      1.78    0.02    0.53
  C8                   CONDUIT     0.078     0  12:31      1.74    0.98    0.72
  C9                   CONDUIT     0.077     0  12:35      1.13    0.26    0.38
  V1                   ORIFICE     0.212     0  12:52                      1.00
  V2                   ORIFICE     0.072     0  03:00                      1.00
  V3                   ORIFICE     0.149     0  12:25                      1.00
  V4                   ORIFICE     0.042     0  02:30                      1.00
  V5                   ORIFICE     0.024     0  14:03                      1.00
  V6                   ORIFICE     0.157     0  13:36                      1.00
  
  
  ***************************
  Flow Classification Summary
  ***************************
  
  -------------------------------------------------------------------------------------
                      Adjusted    ---------- Fraction of Time in Flow Class ---------- 
                       /Actual         Up    Down  Sub   Sup   Up    Down  Norm  Inlet 
  Conduit               Length    Dry  Dry   Dry   Crit  Crit  Crit  Crit  Ltd   Ctrl  
  -------------------------------------------------------------------------------------
  C1                      1.00   0.00  0.00  0.00  0.57  0.43  0.00  0.00  0.97  0.00
  C10                     1.00   0.00  0.00  0.00  0.96  0.04  0.00  0.00  0.98  0.00
  C11                     1.00   0.00  0.00  0.00  0.13  0.87  0.00  0.00  1.00  0.00
  C12                     1.00   0.00  0.00  0.00  0.62  0.38  0.00  0.00  0.98  0.00
  C13                     1.00   0.00  0.00  0.00  0.91  0.09  0.00  0.00  0.61  0.00
  C14                     1.00   0.01  0.00  0.00  0.01  0.99  0.00  0.00  0.86  0.00
  C15                     1.00   0.06  0.00  0.00  0.01  0.93  0.00  0.00  0.02  0.00
  C16                     1.00   0.00  0.06  0.00  0.46  0.48  0.00  0.00  0.25  0.00
  C17                     1.00   0.00  0.00  0.00  0.55  0.45  0.00  0.00  0.96  0.00
  C18                     1.00   0.00  0.00  0.00  0.97  0.03  0.00  0.00  0.98  0.00
  C19                     1.00   0.00  0.00  0.00  0.80  0.19  0.00  0.00  1.00  0.00
  C2                      1.00   0.00  0.00  0.00  0.87  0.13  0.00  0.00  0.97  0.00
  C20                     1.00   0.00  0.00  0.00  0.83  0.17  0.00  0.00  0.99  0.00
  C21                     1.00   0.00  0.00  0.00  0.00  1.00  0.00  0.00  0.00  0.00
  C22                     1.00   0.00  0.00  0.00  0.99  0.01  0.00  0.00  1.00  0.00
  C23                     1.00   0.00  0.00  0.00  0.96  0.04  0.00  0.00  0.97  0.00
  C3                      1.00   0.00  0.00  0.00  0.07  0.93  0.00  0.00  0.18  0.00
  C4                      1.00   0.00  0.00  0.00  0.97  0.03  0.00  0.00  0.98  0.00
  C5                      1.00   0.00  0.00  0.00  0.92  0.08  0.00  0.00  0.98  0.00
  C6                      1.00   0.00  0.00  0.00  0.02  0.98  0.00  0.00  0.00  0.00
  C7                      1.00   0.00  0.00  0.00  0.97  0.03  0.00  0.00  0.98  0.00
  C8                      1.00   0.00  0.00  0.00  0.17  0.83  0.00  0.00  0.00  0.00
  C9                      1.00   0.00  0.00  0.00  1.00  0.00  0.00  0.00  1.00  0.00
  
  
  *************************
  Conduit Surcharge Summary
  *************************
  
  ----------------------------------------------------------------------------
                                                           Hours        Hours 
                         --------- Hours Full --------   Above Full   Capacity
  Conduit                Both Ends  Upstream  Dnstream   Normal Flow   Limited
  ----------------------------------------------------------------------------
  C10                         0.01      0.01      6.47      0.01         0.01
  C13                         0.01      0.01      6.89      0.01         0.01
  C15                         0.01      0.31      0.01      0.34         0.01
  C23                         0.01      0.01     13.79      0.01         0.01
  C4                          0.01      0.01      7.80      0.01         0.01
  C7                          0.01      0.01     17.36      0.01         0.01
  

  Analysis begun on:  Sun Jul 17 20:47:54 2022
  Analysis ended on:  Sun Jul 17 20:47:56 2022
  Total elapsed time: 00:00:02