
  EPA STORM WATER MANAGEMENT MODEL - VERSION 5.1 (Build 5.3.0.dev0)
  --------------------------------------------------------------

  
  *********************************************************
  NOTE: The summary statistics displayed in this report are
  based on results found at every computational time step,  
  not just on results from each reporting time step.
  *********************************************************
  
  ****************
  Analysis Options
  ****************
  Flow Units ............... CMS
  Process Models:
    Rainfall/Runoff ........ YES
    RDII ................... NO
    Snowmelt ............... NO
    Groundwater ............ NO
    Flow Routing ........... YES
    Ponding Allowed ........ NO
    Water Quality .......... NO
  Infiltration Method ...... HORTON
  Flow Routing Method ...... DYNWAVE
  Surcharge Method ......... EXTRAN
  Starting Date ............ 08/30/2008 11:05:00
  Ending Date .............. 08/30/2008 21:55:00
  Antecedent Dry Days ...... 0.0
  Report Time Step ......... 00:05:00
  Wet Time Step ............ 00:05:00
  Dry Time Step ............ 01:00:00
  Routing Time Step ........ 30.00 sec
  Variable Time Step ....... YES
  Maximum Trials ........... 8
  Number of Threads ........ 1
  Head Tolerance ........... 0.001500 m
  
  
  **************************        Volume         Depth
  Runoff Quantity Continuity     hectare-m            mm
  **************************     ---------       -------
  Total Precipitation ......         1.032         5.728
  Evaporation Loss .........         0.000         0.000
  Infiltration Loss ........         0.000         0.000
  Surface Runoff ...........         1.003         5.565
  Final Storage ............         0.031         0.171
  Continuity Error (%) .....        -0.145
  
  
  **************************        Volume        Volume
  Flow Routing Continuity        hectare-m      10^6 ltr
  **************************     ---------     ---------
  Dry Weather Inflow .......         0.449         4.486
  Wet Weather Inflow .......         1.003        10.029
  Groundwater Inflow .......         0.000         0.000
  RDII Inflow ..............         0.000         0.000
  External Inflow ..........         0.000         0.000
  External Outflow .........         0.835         8.351
  Flooding Loss ............         0.000         0.000
  Evaporation Loss .........         0.000         0.000
  Exfiltration Loss ........         0.000         0.000
  Initial Stored Volume ....         0.000         0.000
  Final Stored Volume ......         0.505         5.048
  Continuity Error (%) .....         7.690
  
  
  *************************
  Highest Continuity Errors
  *************************
  Node T2 (27.61%)
  Node T4 (25.69%)
  Node T6 (22.77%)
  Node T5 (16.34%)
  Node T3 (11.47%)
  
  
  ***************************
  Time-Step Critical Elements
  ***************************
  Link C15 (31.91%)
  
  
  ********************************
  Highest Flow Instability Indexes
  ********************************
  Link C23 (3)
  Link C15 (3)
  Link C19 (3)
  Link C13 (3)
  Link C20 (3)
  
  
  *************************
  Routing Time Step Summary
  *************************
  Minimum Time Step           :     0.32 sec
  Average Time Step           :    27.75 sec
  Maximum Time Step           :    30.00 sec
  Percent in Steady State     :     4.23
  Average Iterations per Step :     2.02
  Percent Not Converging      :     0.00
  
  
  ***************************
  Subcatchment Runoff Summary
  ***************************
  
  ------------------------------------------------------------------------------------------------------------------------------
                            Total      Total      Total      Total     Imperv       Perv      Total       Total     Peak  Runoff
                           Precip      Runon       Evap      Infil     Runoff     Runoff     Runoff      Runoff   Runoff   Coeff
  Subcatchment                 mm         mm         mm         mm         mm         mm         mm    10^6 ltr      CMS
  ------------------------------------------------------------------------------------------------------------------------------
  SC01                       5.63       0.00       0.00       0.00       5.52       0.00       5.52        1.82     0.30   0.980
  SC010                      5.63       0.00       0.00       0.00       5.48       0.00       5.48        0.64     0.10   0.972
  SC02                       5.83       0.00       0.00       0.00       5.70       0.00       5.70        1.30     0.19   0.978
  SC03                       6.42       0.00       0.00       0.00       6.35       0.00       6.35        1.14     0.16   0.989
  SC04                       5.83       0.00       0.00       0.00       5.55       0.00       5.55        0.38     0.04   0.952
  SC05                       5.63       0.00       0.00       0.00       5.51       0.00       5.51        0.86     0.14   0.978
  SC06                       4.98       0.00       0.00       0.00       4.71       0.00       4.71        1.53     0.17   0.945
  SC07                       5.83       0.00       0.00       0.00       5.55       0.00       5.55        0.26     0.03   0.952
  SC08                       6.42       0.00       0.00       0.00       6.27       0.00       6.27        1.75     0.22   0.976
  SC09                       4.98       0.00       0.00       0.00       4.81       0.00       4.81        0.33     0.04   0.966
  
  
  ******************
  Node Depth Summary
  ******************
  
  ---------------------------------------------------------------------------------
                                 Average  Maximum  Maximum  Time of Max    Reported
                                   Depth    Depth      HGL   Occurrence   Max Depth
  Node                 Type       Meters   Meters   Meters  days hr:min      Meters
  ---------------------------------------------------------------------------------
  CSO10                JUNCTION     0.11     0.27    30.27     0  01:30        0.26
  CSO7                 JUNCTION     0.09     0.16    34.16     0  01:30        0.16
  CSO8                 JUNCTION     0.13     0.30    32.30     0  01:20        0.30
  CSO9                 JUNCTION     0.09     0.19    40.19     0  02:10        0.18
  J1                   JUNCTION     0.07     0.14    34.14     0  01:30        0.14
  J10                  JUNCTION     0.09     0.19    29.19     0  01:22        0.19
  J11                  JUNCTION     0.10     0.21    31.21     0  01:23        0.21
  J12                  JUNCTION     0.13     0.23    26.23     0  01:26        0.23
  J13                  JUNCTION     0.06     0.12    29.12     0  01:30        0.12
  J14                  JUNCTION     0.13     0.16    20.16     0  07:58        0.16
  J15                  JUNCTION     0.16     0.25    15.25     0  01:36        0.25
  J16                  JUNCTION     0.06     0.14    30.14     0  01:30        0.14
  J17                  JUNCTION     0.06     0.11    20.11     0  05:04        0.11
  J18                  JUNCTION     0.05     0.12    29.12     0  01:33        0.12
  J19                  JUNCTION     0.15     0.17     8.17     0  03:20        0.17
  J2                   JUNCTION     0.06     0.07    25.07     0  03:56        0.07
  J3                   JUNCTION     0.11     0.14    18.14     0  08:35        0.14
  J4                   JUNCTION     0.11     0.19    33.19     0  01:35        0.19
  J5                   JUNCTION     0.06     0.10    32.10     0  01:33        0.10
  J6                   JUNCTION     0.05     0.07    25.07     0  08:35        0.07
  J7                   JUNCTION     0.07     0.14    39.14     0  01:36        0.14
  J8                   JUNCTION     0.10     0.16    36.16     0  02:13        0.16
  J9                   JUNCTION     0.09     0.16    29.16     0  05:55        0.16
  Out_to_WWTP          OUTFALL      0.15     0.17     6.17     0  03:20        0.17
  T1                   STORAGE      3.36     4.64    14.64     0  03:19        4.64
  T2                   STORAGE      1.64     2.62    23.62     0  09:17        2.62
  T3                   STORAGE      1.81     2.44    24.44     0  08:45        2.44
  T4                   STORAGE      2.40     3.72    30.72     0  10:02        3.72
  T5                   STORAGE      2.31     2.92    29.92     0  03:52        2.92
  T6                   STORAGE      3.13     4.61    35.61     0  05:50        4.61
  
  
  *******************
  Node Inflow Summary
  *******************
  
  -------------------------------------------------------------------------------------------------
                                  Maximum  Maximum                  Lateral       Total        Flow
                                  Lateral    Total  Time of Max      Inflow      Inflow     Balance
                                   Inflow   Inflow   Occurrence      Volume      Volume       Error
  Node                 Type           CMS      CMS  days hr:min    10^6 ltr    10^6 ltr     Percent
  -------------------------------------------------------------------------------------------------
  CSO10                JUNCTION     0.103    0.103     0  01:30       0.804       0.804       0.043
  CSO7                 JUNCTION     0.043    0.043     0  01:30       0.599       0.599       0.034
  CSO8                 JUNCTION     0.232    0.232     0  01:20        2.01        2.01       0.003
  CSO9                 JUNCTION     0.048    0.048     0  02:10       0.558       0.558       0.061
  J1                   JUNCTION     0.165    0.165     0  01:30        1.51        1.51      -0.062
  J10                  JUNCTION     0.178    0.400     0  01:20        1.59         3.6       0.065
  J11                  JUNCTION     0.000    0.232     0  01:20           0        2.01       0.167
  J12                  JUNCTION     0.000    0.459     0  01:23           0        5.56      -0.197
  J13                  JUNCTION     0.208    0.208     0  01:30        1.84        1.84      -0.310
  J14                  JUNCTION     0.000    0.132     0  08:45           0        3.82       0.149
  J15                  JUNCTION     0.000    0.554     0  01:31           0        9.36       0.784
  J16                  JUNCTION     0.329    0.329     0  01:30        2.46        2.46      -0.048
  J17                  JUNCTION     0.000    0.082     0  04:50           0       0.837       0.633
  J18                  JUNCTION     0.000    0.103     0  01:31           0       0.804       0.028
  J19                  JUNCTION     0.000    0.260     0  03:20           0        8.36       0.126
  J2                   JUNCTION     0.000    0.030     0  03:55           0        1.02       0.422
  J3                   JUNCTION     0.000    0.185     0  08:35           0        5.29       0.537
  J4                   JUNCTION     0.000    0.043     0  01:30           0       0.599       0.415
  J5                   JUNCTION     0.049    0.090     0  01:32        0.53        1.13       0.034
  J6                   JUNCTION     0.000    0.023     0  08:35           0       0.469       0.521
  J7                   JUNCTION     0.000    0.047     0  02:11           0       0.558       0.431
  J8                   JUNCTION     0.204    0.246     0  02:10        2.62        3.18       0.044
  J9                   JUNCTION     0.000    0.168     0  05:50           0        1.97       0.030
  Out_to_WWTP          OUTFALL      0.000    0.260     0  03:20           0        8.35       0.000
  T1                   STORAGE      0.000    0.548     0  01:36           0        9.29       5.765
  T2                   STORAGE      0.000    0.207     0  01:30           0        1.84      38.139
  T3                   STORAGE      0.000    0.457     0  01:26           0        5.57      12.960
  T4                   STORAGE      0.000    0.090     0  01:34           0        1.13      34.574
  T5                   STORAGE      0.000    0.165     0  01:30           0        1.51      19.536
  T6                   STORAGE      0.000    0.244     0  02:13           0        3.17      29.477
  
  
  **********************
  Node Surcharge Summary
  **********************
  
  No nodes were surcharged.
  
  
  *********************
  Node Flooding Summary
  *********************
  
  No nodes were flooded.
  
  
  **********************
  Storage Volume Summary
  **********************
  
  --------------------------------------------------------------------------------------------------
                         Average     Avg  Evap Exfil       Maximum     Max    Time of Max    Maximum
                          Volume    Pcnt  Pcnt  Pcnt        Volume    Pcnt     Occurrence    Outflow
  Storage Unit           1000 m3    Full  Loss  Loss       1000 m3    Full    days hr:min        CMS
  --------------------------------------------------------------------------------------------------
  T1                       0.470      67     0     0         0.649      93       0  03:19      0.260
  T2                       0.327      33     0     0         0.523      52       0  09:17      0.082
  T3                       0.942      36     0     0         1.268      49       0  08:45      0.132
  T4                       0.240      48     0     0         0.372      74       0  10:02      0.023
  T5                       0.231      46     0     0         0.292      58       0  03:52      0.030
  T6                       0.375      63     0     0         0.553      92       0  05:50      0.168
  
  
  ***********************
  Outfall Loading Summary
  ***********************
  
  -----------------------------------------------------------
                         Flow       Avg       Max       Total
                         Freq      Flow      Flow      Volume
  Outfall Node           Pcnt       CMS       CMS    10^6 ltr
  -----------------------------------------------------------
  Out_to_WWTP           99.36     0.210     0.260       8.351
  -----------------------------------------------------------
  System                99.36     0.210     0.260       8.351
  
  
  ********************
  Link Flow Summary
  ********************
  
  -----------------------------------------------------------------------------
                                 Maximum  Time of Max   Maximum    Max/    Max/
                                  |Flow|   Occurrence   |Veloc|    Full    Full
  Link                 Type          CMS  days hr:min     m/sec    Flow   Depth
  -----------------------------------------------------------------------------
  C1                   CONDUIT     0.030     0  03:56      0.95    0.01    0.10
  C10                  CONDUIT     0.244     0  02:13      1.81    0.03    0.55
  C11                  CONDUIT     0.185     0  08:35      1.64    0.01    0.09
  C12                  CONDUIT     0.161     0  06:40      1.52    0.01    0.08
  C13                  CONDUIT     0.457     0  01:26      1.94    0.03    0.54
  C14                  CONDUIT     0.260     0  03:20      2.05    0.01    0.08
  C15                  CONDUIT     0.232     0  01:20      2.50    0.74    0.56
  C16                  CONDUIT     0.230     0  01:23      1.40    0.02    0.10
  C17                  CONDUIT     0.399     0  01:22      2.30    0.02    0.10
  C18                  CONDUIT     0.207     0  01:30      3.17    0.01    0.52
  C19                  CONDUIT     0.081     0  05:04      1.13    0.03    0.18
  C2                   CONDUIT     0.023     0  08:35      1.01    0.03    0.17
  C20                  CONDUIT     0.329     0  01:30      3.22    0.01    0.10
  C21                  CONDUIT     0.103     0  01:31      1.63    0.59    0.43
  C22                  CONDUIT     0.103     0  01:33      1.18    0.05    0.23
  C23                  CONDUIT     0.548     0  01:36      1.36    0.06    0.58
  C3                   CONDUIT     0.133     0  07:59      2.00    0.05    0.15
  C4                   CONDUIT     0.165     0  01:30      3.10    0.04    0.57
  C5                   CONDUIT     0.043     0  01:30      1.34    0.73    0.70
  C6                   CONDUIT     0.042     0  01:35      1.20    0.67    0.50
  C7                   CONDUIT     0.090     0  01:34      1.57    0.02    0.55
  C8                   CONDUIT     0.047     0  02:11      1.21    0.60    0.50
  C9                   CONDUIT     0.047     0  01:36      0.97    0.16    0.30
  V1                   ORIFICE     0.260     0  03:20                      1.00
  V2                   ORIFICE     0.082     0  04:50                      1.00
  V3                   ORIFICE     0.132     0  08:45                      1.00
  V4                   ORIFICE     0.023     0  08:35                      1.00
  V5                   ORIFICE     0.030     0  03:55                      1.00
  V6                   ORIFICE     0.168     0  05:50                      1.00
  
  
  ***************************
  Flow Classification Summary
  ***************************
  
  -------------------------------------------------------------------------------------
                      Adjusted    ---------- Fraction of Time in Flow Class ---------- 
                       /Actual         Up    Down  Sub   Sup   Up    Down  Norm  Inlet 
  Conduit               Length    Dry  Dry   Dry   Crit  Crit  Crit  Crit  Ltd   Ctrl  
  -------------------------------------------------------------------------------------
  C1                      1.00   0.00  0.00  0.00  0.70  0.30  0.00  0.00  0.97  0.00
  C10                     1.00   0.00  0.00  0.00  0.98  0.02  0.00  0.00  0.99  0.00
  C11                     1.00   0.00  0.00  0.00  0.21  0.79  0.00  0.00  1.00  0.00
  C12                     1.00   0.00  0.00  0.00  0.71  0.29  0.00  0.00  0.92  0.00
  C13                     1.00   0.00  0.00  0.00  0.94  0.06  0.00  0.00  0.95  0.00
  C14                     1.00   0.00  0.00  0.00  0.01  0.99  0.00  0.00  0.31  0.00
  C15                     1.00   0.00  0.00  0.00  0.00  1.00  0.00  0.00  0.00  0.00
  C16                     1.00   0.00  0.00  0.00  0.22  0.78  0.00  0.00  0.26  0.00
  C17                     1.00   0.00  0.00  0.00  0.09  0.91  0.00  0.00  0.97  0.00
  C18                     1.00   0.00  0.00  0.00  0.93  0.07  0.00  0.00  0.98  0.00
  C19                     1.00   0.00  0.00  0.00  0.98  0.02  0.00  0.00  1.00  0.00
  C2                      1.00   0.00  0.00  0.00  0.97  0.03  0.00  0.00  0.98  0.00
  C20                     1.00   0.00  0.00  0.00  0.68  0.32  0.00  0.00  0.99  0.00
  C21                     1.00   0.00  0.00  0.00  0.00  1.00  0.00  0.00  0.00  0.00
  C22                     1.00   0.00  0.00  0.00  0.93  0.06  0.00  0.00  1.00  0.00
  C23                     1.00   0.00  0.00  0.00  0.94  0.06  0.00  0.00  0.97  0.00
  C3                      1.00   0.00  0.00  0.00  0.02  0.97  0.00  0.00  0.06  0.00
  C4                      1.00   0.00  0.00  0.00  0.98  0.02  0.00  0.00  0.99  0.00
  C5                      1.00   0.00  0.00  0.00  0.94  0.06  0.00  0.00  0.99  0.00
  C6                      1.00   0.00  0.00  0.00  0.01  0.99  0.00  0.00  0.00  0.00
  C7                      1.00   0.00  0.00  0.00  0.97  0.03  0.00  0.00  0.98  0.00
  C8                      1.00   0.00  0.00  0.00  0.01  0.99  0.00  0.00  0.00  0.00
  C9                      1.00   0.00  0.00  0.00  1.00  0.00  0.00  0.00  1.00  0.00
  
  
  *************************
  Conduit Surcharge Summary
  *************************
  
  ----------------------------------------------------------------------------
                                                           Hours        Hours 
                         --------- Hours Full --------   Above Full   Capacity
  Conduit                Both Ends  Upstream  Dnstream   Normal Flow   Limited
  ----------------------------------------------------------------------------
  C10                         0.01      0.01      8.90      0.01         0.01
  C13                         0.01      0.01      6.14      0.01         0.01
  C18                         0.01      0.01      3.42      0.01         0.01
  C23                         0.01      0.01      9.32      0.01         0.01
  C4                          0.01      0.01      9.39      0.01         0.01
  C7                          0.01      0.01      9.21      0.01         0.01
  

  Analysis begun on:  Sun Jul 17 20:58:53 2022
  Analysis ended on:  Sun Jul 17 20:58:54 2022
  Total elapsed time: 00:00:01