
  EPA STORM WATER MANAGEMENT MODEL - VERSION 5.1 (Build 5.3.0.dev0)
  --------------------------------------------------------------

  
  *********************************************************
  NOTE: The summary statistics displayed in this report are
  based on results found at every computational time step,  
  not just on results from each reporting time step.
  *********************************************************
  
  ****************
  Analysis Options
  ****************
  Flow Units ............... CMS
  Process Models:
    Rainfall/Runoff ........ YES
    RDII ................... NO
    Snowmelt ............... NO
    Groundwater ............ NO
    Flow Routing ........... YES
    Ponding Allowed ........ NO
    Water Quality .......... NO
  Infiltration Method ...... HORTON
  Flow Routing Method ...... DYNWAVE
  Surcharge Method ......... EXTRAN
  Starting Date ............ 05/26/2008 03:10:00
  Ending Date .............. 05/26/2008 17:20:00
  Antecedent Dry Days ...... 0.0
  Report Time Step ......... 00:05:00
  Wet Time Step ............ 00:05:00
  Dry Time Step ............ 01:00:00
  Routing Time Step ........ 30.00 sec
  Variable Time Step ....... YES
  Maximum Trials ........... 8
  Number of Threads ........ 1
  Head Tolerance ........... 0.001500 m
  
  
  **************************        Volume         Depth
  Runoff Quantity Continuity     hectare-m            mm
  **************************     ---------       -------
  Total Precipitation ......         1.453         8.065
  Evaporation Loss .........         0.000         0.000
  Infiltration Loss ........         0.000         0.000
  Surface Runoff ...........         1.428         7.926
  Final Storage ............         0.028         0.157
  Continuity Error (%) .....        -0.214
  
  
  **************************        Volume        Volume
  Flow Routing Continuity        hectare-m      10^6 ltr
  **************************     ---------     ---------
  Dry Weather Inflow .......         0.582         5.818
  Wet Weather Inflow .......         1.427        14.274
  Groundwater Inflow .......         0.000         0.000
  RDII Inflow ..............         0.000         0.000
  External Inflow ..........         0.000         0.000
  External Outflow .........         1.085        10.852
  Flooding Loss ............         0.230         2.296
  Evaporation Loss .........         0.000         0.000
  Exfiltration Loss ........         0.000         0.000
  Initial Stored Volume ....         0.000         0.000
  Final Stored Volume ......         0.565         5.647
  Continuity Error (%) .....         6.454
  
  
  *************************
  Highest Continuity Errors
  *************************
  Node T2 (27.40%)
  Node T3 (21.60%)
  Node T4 (14.44%)
  Node T6 (12.43%)
  Node T5 (9.85%)
  
  
  ***************************
  Time-Step Critical Elements
  ***************************
  Link C15 (18.75%)
  Link C21 (15.92%)
  
  
  ********************************
  Highest Flow Instability Indexes
  ********************************
  Link C11 (4)
  Link C3 (4)
  Link C12 (3)
  Link V3 (3)
  Link V6 (3)
  
  
  *************************
  Routing Time Step Summary
  *************************
  Minimum Time Step           :     0.10 sec
  Average Time Step           :    27.45 sec
  Maximum Time Step           :    30.00 sec
  Percent in Steady State     :    13.40
  Average Iterations per Step :     2.17
  Percent Not Converging      :     0.12
  
  
  ***************************
  Subcatchment Runoff Summary
  ***************************
  
  ------------------------------------------------------------------------------------------------------------------------------
                            Total      Total      Total      Total     Imperv       Perv      Total       Total     Peak  Runoff
                           Precip      Runon       Evap      Infil     Runoff     Runoff     Runoff      Runoff   Runoff   Coeff
  Subcatchment                 mm         mm         mm         mm         mm         mm         mm    10^6 ltr      CMS
  ------------------------------------------------------------------------------------------------------------------------------
  SC01                      12.49       0.00       0.00       0.00      12.42       0.00      12.42        4.10     0.61   0.994
  SC010                     12.49       0.00       0.00       0.00      12.38       0.00      12.38        1.45     0.20   0.991
  SC02                       5.67       0.00       0.00       0.00       5.58       0.00       5.58        1.27     0.26   0.983
  SC03                       5.11       0.00       0.00       0.00       5.04       0.00       5.04        0.91     0.11   0.987
  SC04                       5.67       0.00       0.00       0.00       5.48       0.00       5.48        0.38     0.06   0.967
  SC05                      12.49       0.00       0.00       0.00      12.41       0.00      12.41        1.94     0.28   0.994
  SC06                       6.83       0.00       0.00       0.00       6.53       0.00       6.53        2.13     0.27   0.956
  SC07                       5.67       0.00       0.00       0.00       5.49       0.00       5.49        0.26     0.04   0.967
  SC08                       5.11       0.00       0.00       0.00       4.98       0.00       4.98        1.39     0.14   0.975
  SC09                       6.83       0.00       0.00       0.00       6.63       0.00       6.63        0.46     0.07   0.970
  
  
  ******************
  Node Depth Summary
  ******************
  
  ---------------------------------------------------------------------------------
                                 Average  Maximum  Maximum  Time of Max    Reported
                                   Depth    Depth      HGL   Occurrence   Max Depth
  Node                 Type       Meters   Meters   Meters  days hr:min      Meters
  ---------------------------------------------------------------------------------
  CSO10                JUNCTION     0.14     1.00    31.00     0  01:49        1.00
  CSO7                 JUNCTION     0.08     0.18    34.18     0  03:15        0.18
  CSO8                 JUNCTION     0.10     0.23    32.23     0  04:00        0.23
  CSO9                 JUNCTION     0.09     0.28    40.28     0  02:37        0.27
  J1                   JUNCTION     0.07     0.18    34.18     0  01:50        0.18
  J10                  JUNCTION     0.08     0.16    29.16     0  04:02        0.16
  J11                  JUNCTION     0.08     0.17    31.17     0  04:02        0.16
  J12                  JUNCTION     0.12     0.22    26.22     0  04:05        0.22
  J13                  JUNCTION     0.05     0.14    29.14     0  03:11        0.14
  J14                  JUNCTION     0.10     0.18    20.18     0  12:12        0.18
  J15                  JUNCTION     0.17     0.31    15.31     0  01:51        0.31
  J16                  JUNCTION     0.07     0.19    30.19     0  01:50        0.19
  J17                  JUNCTION     0.05     0.13    20.13     0  05:57        0.13
  J18                  JUNCTION     0.06     0.16    29.16     0  01:51        0.16
  J19                  JUNCTION     0.15     0.17     8.17     0  02:23        0.17
  J2                   JUNCTION     0.07     0.08    25.08     0  03:33        0.08
  J3                   JUNCTION     0.10     0.15    18.15     0  10:35        0.15
  J4                   JUNCTION     0.10     0.22    33.22     0  03:17        0.21
  J5                   JUNCTION     0.05     0.11    32.11     0  03:16        0.11
  J6                   JUNCTION     0.05     0.10    25.10     0  04:24        0.10
  J7                   JUNCTION     0.07     0.17    39.17     0  02:41        0.17
  J8                   JUNCTION     0.09     0.20    36.20     0  02:45        0.20
  J9                   JUNCTION     0.09     0.16    29.16     0  05:18        0.16
  Out_to_WWTP          OUTFALL      0.15     0.17     6.17     0  04:18        0.17
  T1                   STORAGE      3.45     5.00    15.00     0  02:21        5.00
  T2                   STORAGE      1.92     2.80    23.80     0  05:31        2.80
  T3                   STORAGE      2.24     3.87    25.87     0  12:27        3.87
  T4                   STORAGE      1.48     2.28    29.28     0  04:20        2.28
  T5                   STORAGE      3.78     5.00    32.00     0  02:52        5.00
  T6                   STORAGE      3.29     5.00    36.00     0  04:26        5.00
  
  
  *******************
  Node Inflow Summary
  *******************
  
  -------------------------------------------------------------------------------------------------
                                  Maximum  Maximum                  Lateral       Total        Flow
                                  Lateral    Total  Time of Max      Inflow      Inflow     Balance
                                   Inflow   Inflow   Occurrence      Volume      Volume       Error
  Node                 Type           CMS      CMS  days hr:min    10^6 ltr    10^6 ltr     Percent
  -------------------------------------------------------------------------------------------------
  CSO10                JUNCTION     0.205    0.205     0  01:50        1.66        1.66       0.064
  CSO7                 JUNCTION     0.050    0.050     0  03:15       0.688        0.69       0.461
  CSO8                 JUNCTION     0.152    0.152     0  04:00        1.82        1.83       0.022
  CSO9                 JUNCTION     0.078    0.078     0  02:35       0.746       0.747       0.278
  J1                   JUNCTION     0.294    0.294     0  01:50        2.76        2.77       0.174
  J10                  JUNCTION     0.124    0.264     0  04:00        1.47        3.31       0.152
  J11                  JUNCTION     0.000    0.151     0  04:00           0        1.83       0.113
  J12                  JUNCTION     0.000    0.424     0  04:02           0        6.48       0.665
  J13                  JUNCTION     0.272    0.272     0  03:10        1.96        1.96      -0.072
  J14                  JUNCTION     0.000    0.165     0  12:10           0        3.19       1.719
  J15                  JUNCTION     0.000    0.863     0  01:50           0        13.2      -0.116
  J16                  JUNCTION     0.620    0.620     0  01:50        4.91        4.92       0.030
  J17                  JUNCTION     0.000    0.105     0  05:36           0       0.931       0.186
  J18                  JUNCTION     0.000    0.202     0  01:50           0        1.66      -0.092
  J19                  JUNCTION     0.000    0.271     0  02:22           0        10.9       0.084
  J2                   JUNCTION     0.000    0.039     0  02:53           0        1.67       0.263
  J3                   JUNCTION     0.000    0.247     0  10:33           0        5.69       0.449
  J4                   JUNCTION     0.000    0.050     0  03:15           0       0.687       0.436
  J5                   JUNCTION     0.065    0.113     0  03:15       0.566        1.25       0.129
  J6                   JUNCTION     0.000    0.054     0  04:20           0       0.883      -0.175
  J7                   JUNCTION     0.000    0.077     0  02:37           0       0.745       0.315
  J8                   JUNCTION     0.285    0.360     0  02:45        3.51        4.26       0.225
  J9                   JUNCTION     0.000    0.175     0  04:50           0        3.17      -0.409
  Out_to_WWTP          OUTFALL      0.000    0.271     0  02:23           0        10.9       0.000
  T1                   STORAGE      0.000    0.846     0  01:52           0        13.2       1.923
  T2                   STORAGE      0.000    0.270     0  03:11           0        1.97      37.740
  T3                   STORAGE      0.000    0.416     0  04:05           0        6.44      27.556
  T4                   STORAGE      0.000    0.113     0  03:16           0        1.25      16.883
  T5                   STORAGE      0.000    0.291     0  01:50           0        2.76      10.924
  T6                   STORAGE      0.000    0.359     0  02:45           0        4.25      14.194
  
  
  **********************
  Node Surcharge Summary
  **********************
  
  Surcharging occurs when water rises above the top of the highest conduit.
  ---------------------------------------------------------------------
                                               Max. Height   Min. Depth
                                   Hours       Above Crown    Below Rim
  Node                 Type      Surcharged         Meters       Meters
  ---------------------------------------------------------------------
  CSO10                JUNCTION        0.43          0.560        0.000
  
  
  *********************
  Node Flooding Summary
  *********************
  
  Flooding refers to all water that overflows a node, whether it ponds or not.
  --------------------------------------------------------------------------
                                                             Total   Maximum
                                 Maximum   Time of Max       Flood    Ponded
                        Hours       Rate    Occurrence      Volume     Depth
  Node                 Flooded       CMS   days hr:min    10^6 ltr    Meters
  --------------------------------------------------------------------------
  CSO10                   0.02     0.002      0  01:50       0.000     0.000
  T1                      1.65     0.546      0  03:10       1.699     0.000
  T5                      1.29     0.221      0  03:06       0.476     0.000
  T6                      0.39     0.103      0  04:26       0.120     0.000
  
  
  **********************
  Storage Volume Summary
  **********************
  
  --------------------------------------------------------------------------------------------------
                         Average     Avg  Evap Exfil       Maximum     Max    Time of Max    Maximum
                          Volume    Pcnt  Pcnt  Pcnt        Volume    Pcnt     Occurrence    Outflow
  Storage Unit           1000 m3    Full  Loss  Loss       1000 m3    Full    days hr:min        CMS
  --------------------------------------------------------------------------------------------------
  T1                       0.483      69     0     0         0.700     100       0  02:21      0.271
  T2                       0.383      38     0     0         0.559      56       0  05:31      0.105
  T3                       1.163      45     0     0         2.011      77       0  12:27      0.165
  T4                       0.148      30     0     0         0.228      46       0  04:20      0.054
  T5                       0.378      76     0     0         0.500     100       0  02:52      0.039
  T6                       0.394      66     0     0         0.600     100       0  04:26      0.175
  
  
  ***********************
  Outfall Loading Summary
  ***********************
  
  -----------------------------------------------------------
                         Flow       Avg       Max       Total
                         Freq      Flow      Flow      Volume
  Outfall Node           Pcnt       CMS       CMS    10^6 ltr
  -----------------------------------------------------------
  Out_to_WWTP           99.08     0.217     0.271      10.852
  -----------------------------------------------------------
  System                99.08     0.217     0.271      10.852
  
  
  ********************
  Link Flow Summary
  ********************
  
  -----------------------------------------------------------------------------
                                 Maximum  Time of Max   Maximum    Max/    Max/
                                  |Flow|   Occurrence   |Veloc|    Full    Full
  Link                 Type          CMS  days hr:min     m/sec    Flow   Depth
  -----------------------------------------------------------------------------
  C1                   CONDUIT     0.039     0  03:33      1.27    0.01    0.11
  C10                  CONDUIT     0.359     0  02:45      2.18    0.04    0.56
  C11                  CONDUIT     0.232     0  10:35      1.96    0.01    0.10
  C12                  CONDUIT     0.173     0  05:20      1.56    0.01    0.09
  C13                  CONDUIT     0.416     0  04:05      1.41    0.02    0.55
  C14                  CONDUIT     0.271     0  02:23      2.08    0.02    0.09
  C15                  CONDUIT     0.151     0  04:00      2.24    0.48    0.44
  C16                  CONDUIT     0.146     0  04:02      1.21    0.01    0.08
  C17                  CONDUIT     0.258     0  04:02      1.96    0.01    0.09
  C18                  CONDUIT     0.270     0  03:11      1.40    0.01    0.53
  C19                  CONDUIT     0.102     0  05:57      1.38    0.04    0.18
  C2                   CONDUIT     0.054     0  04:24      1.53    0.06    0.21
  C20                  CONDUIT     0.616     0  01:50      3.09    0.02    0.13
  C21                  CONDUIT     0.202     0  01:50      1.82    1.16    0.69
  C22                  CONDUIT     0.201     0  01:51      1.62    0.09    0.30
  C23                  CONDUIT     0.846     0  01:52      1.78    0.09    0.60
  C3                   CONDUIT     0.168     0  12:13      2.16    0.06    0.16
  C4                   CONDUIT     0.291     0  01:50      6.63    0.07    0.59
  C5                   CONDUIT     0.050     0  03:15      1.50    0.85    0.77
  C6                   CONDUIT     0.049     0  03:18      1.23    0.78    0.55
  C7                   CONDUIT     0.113     0  03:16      0.93    0.03    0.56
  C8                   CONDUIT     0.077     0  02:37      1.39    0.98    0.71
  C9                   CONDUIT     0.076     0  02:41      1.15    0.26    0.37
  V1                   ORIFICE     0.271     0  02:22                      1.00
  V2                   ORIFICE     0.105     0  05:36                      1.00
  V3                   ORIFICE     0.165     0  12:10                      1.00
  V4                   ORIFICE     0.054     0  04:20                      1.00
  V5                   ORIFICE     0.039     0  02:53                      1.00
  V6                   ORIFICE     0.175     0  04:50                      1.00
  
  
  ***************************
  Flow Classification Summary
  ***************************
  
  -------------------------------------------------------------------------------------
                      Adjusted    ---------- Fraction of Time in Flow Class ---------- 
                       /Actual         Up    Down  Sub   Sup   Up    Down  Norm  Inlet 
  Conduit               Length    Dry  Dry   Dry   Crit  Crit  Crit  Crit  Ltd   Ctrl  
  -------------------------------------------------------------------------------------
  C1                      1.00   0.00  0.00  0.00  0.11  0.89  0.00  0.00  0.92  0.00
  C10                     1.00   0.00  0.00  0.00  0.92  0.08  0.00  0.00  0.97  0.00
  C11                     1.00   0.00  0.00  0.00  0.30  0.70  0.00  0.00  1.00  0.00
  C12                     1.00   0.00  0.00  0.00  0.50  0.50  0.00  0.00  0.89  0.00
  C13                     1.00   0.00  0.00  0.00  0.90  0.10  0.00  0.00  0.90  0.00
  C14                     1.00   0.00  0.00  0.00  0.01  0.99  0.00  0.00  0.62  0.00
  C15                     1.00   0.05  0.00  0.00  0.00  0.95  0.00  0.00  0.00  0.00
  C16                     1.00   0.00  0.05  0.00  0.53  0.42  0.00  0.00  0.41  0.00
  C17                     1.00   0.00  0.00  0.00  0.24  0.76  0.00  0.00  0.99  0.00
  C18                     1.00   0.00  0.00  0.00  0.89  0.11  0.00  0.00  0.97  0.00
  C19                     1.00   0.00  0.00  0.00  0.97  0.03  0.00  0.00  1.00  0.00
  C2                      1.00   0.00  0.00  0.00  0.72  0.28  0.00  0.00  1.00  0.00
  C20                     1.00   0.00  0.00  0.00  0.65  0.35  0.00  0.00  0.98  0.00
  C21                     1.00   0.00  0.00  0.00  0.01  0.99  0.00  0.00  0.00  0.00
  C22                     1.00   0.00  0.00  0.00  0.74  0.26  0.00  0.00  1.00  0.00
  C23                     1.00   0.00  0.00  0.00  0.96  0.04  0.00  0.00  0.97  0.00
  C3                      1.00   0.00  0.00  0.00  0.09  0.91  0.00  0.00  0.67  0.00
  C4                      1.00   0.00  0.00  0.00  0.97  0.03  0.00  0.00  0.98  0.00
  C5                      1.00   0.00  0.00  0.00  0.90  0.10  0.00  0.00  0.98  0.00
  C6                      1.00   0.00  0.00  0.00  0.01  0.99  0.00  0.00  0.00  0.00
  C7                      1.00   0.00  0.00  0.00  0.91  0.09  0.00  0.00  0.96  0.00
  C8                      1.00   0.00  0.00  0.00  0.05  0.95  0.00  0.00  0.00  0.00
  C9                      1.00   0.00  0.00  0.00  1.00  0.00  0.00  0.00  1.00  0.00
  
  
  *************************
  Conduit Surcharge Summary
  *************************
  
  ----------------------------------------------------------------------------
                                                           Hours        Hours 
                         --------- Hours Full --------   Above Full   Capacity
  Conduit                Both Ends  Upstream  Dnstream   Normal Flow   Limited
  ----------------------------------------------------------------------------
  C10                         0.01      0.01     11.36      0.01         0.01
  C13                         0.01      0.01      8.53      0.01         0.01
  C18                         0.01      0.01     10.42      0.01         0.01
  C21                         0.01      0.43      0.01      0.38         0.01
  C23                         0.01      0.01     12.50      0.01         0.01
  C4                          0.01      0.01     12.68      0.01         0.01
  C7                          0.01      0.01     10.87      0.01         0.01
  

  Analysis begun on:  Sun Jul 17 20:44:30 2022
  Analysis ended on:  Sun Jul 17 20:44:31 2022
  Total elapsed time: 00:00:01