
  EPA STORM WATER MANAGEMENT MODEL - VERSION 5.1 (Build 5.3.0.dev0)
  --------------------------------------------------------------

  
  *********************************************************
  NOTE: The summary statistics displayed in this report are
  based on results found at every computational time step,  
  not just on results from each reporting time step.
  *********************************************************
  
  ****************
  Analysis Options
  ****************
  Flow Units ............... CMS
  Process Models:
    Rainfall/Runoff ........ YES
    RDII ................... NO
    Snowmelt ............... NO
    Groundwater ............ NO
    Flow Routing ........... YES
    Ponding Allowed ........ NO
    Water Quality .......... NO
  Infiltration Method ...... HORTON
  Flow Routing Method ...... DYNWAVE
  Surcharge Method ......... EXTRAN
  Starting Date ............ 11/17/2007 20:20:00
  Ending Date .............. 11/18/2007 12:40:00
  Antecedent Dry Days ...... 0.0
  Report Time Step ......... 00:05:00
  Wet Time Step ............ 00:05:00
  Dry Time Step ............ 01:00:00
  Routing Time Step ........ 30.00 sec
  Variable Time Step ....... YES
  Maximum Trials ........... 8
  Number of Threads ........ 1
  Head Tolerance ........... 0.001500 m
  
  
  **************************        Volume         Depth
  Runoff Quantity Continuity     hectare-m            mm
  **************************     ---------       -------
  Total Precipitation ......         1.985        11.017
  Evaporation Loss .........         0.000         0.000
  Infiltration Loss ........         0.000         0.000
  Surface Runoff ...........         1.946        10.799
  Final Storage ............         0.047         0.261
  Continuity Error (%) .....        -0.390
  
  
  **************************        Volume        Volume
  Flow Routing Continuity        hectare-m      10^6 ltr
  **************************     ---------     ---------
  Dry Weather Inflow .......         0.445         4.447
  Wet Weather Inflow .......         1.945        19.447
  Groundwater Inflow .......         0.000         0.000
  RDII Inflow ..............         0.000         0.000
  External Inflow ..........         0.000         0.000
  External Outflow .........         1.188        11.883
  Flooding Loss ............         0.099         0.991
  Evaporation Loss .........         0.000         0.000
  Exfiltration Loss ........         0.000         0.000
  Initial Stored Volume ....         0.000         0.000
  Final Stored Volume ......         0.828         8.281
  Continuity Error (%) .....        11.457
  
  
  *************************
  Highest Continuity Errors
  *************************
  Node T2 (26.56%)
  Node T3 (17.94%)
  Node T5 (17.10%)
  Node T6 (14.40%)
  Node T4 (13.83%)
  
  
  ***************************
  Time-Step Critical Elements
  ***************************
  Link C15 (39.57%)
  Link C21 (1.85%)
  
  
  ********************************
  Highest Flow Instability Indexes
  ********************************
  Link C13 (4)
  Link C19 (4)
  Link C23 (4)
  Link C3 (3)
  Link V3 (3)
  
  
  *************************
  Routing Time Step Summary
  *************************
  Minimum Time Step           :     0.07 sec
  Average Time Step           :    27.00 sec
  Maximum Time Step           :    30.00 sec
  Percent in Steady State     :     6.84
  Average Iterations per Step :     2.13
  Percent Not Converging      :     0.25
  
  
  ***************************
  Subcatchment Runoff Summary
  ***************************
  
  ------------------------------------------------------------------------------------------------------------------------------
                            Total      Total      Total      Total     Imperv       Perv      Total       Total     Peak  Runoff
                           Precip      Runon       Evap      Infil     Runoff     Runoff     Runoff      Runoff   Runoff   Coeff
  Subcatchment                 mm         mm         mm         mm         mm         mm         mm    10^6 ltr      CMS
  ------------------------------------------------------------------------------------------------------------------------------
  SC01                      11.10       0.00       0.00       0.00      11.01       0.00      11.01        3.63     0.65   0.992
  SC010                     11.10       0.00       0.00       0.00      10.94       0.00      10.94        1.29     0.18   0.986
  SC02                      11.89       0.00       0.00       0.00      11.76       0.00      11.76        2.68     0.21   0.989
  SC03                      10.20       0.00       0.00       0.00      10.16       0.00      10.16        1.83     0.36   0.996
  SC04                      11.89       0.00       0.00       0.00      11.51       0.00      11.51        0.79     0.05   0.968
  SC05                      11.10       0.00       0.00       0.00      10.99       0.00      10.99        1.72     0.29   0.991
  SC06                      11.08       0.00       0.00       0.00      10.56       0.00      10.56        3.44     0.30   0.953
  SC07                      11.89       0.00       0.00       0.00      11.51       0.00      11.51        0.55     0.04   0.968
  SC08                      10.20       0.00       0.00       0.00       9.99       0.00       9.99        2.80     0.37   0.980
  SC09                      11.08       0.00       0.00       0.00      10.80       0.00      10.80        0.75     0.08   0.975
  
  
  ******************
  Node Depth Summary
  ******************
  
  ---------------------------------------------------------------------------------
                                 Average  Maximum  Maximum  Time of Max    Reported
                                   Depth    Depth      HGL   Occurrence   Max Depth
  Node                 Type       Meters   Meters   Meters  days hr:min      Meters
  ---------------------------------------------------------------------------------
  CSO10                JUNCTION     0.12     0.58    30.58     0  12:47        0.49
  CSO7                 JUNCTION     0.09     0.16    34.16     0  14:20        0.16
  CSO8                 JUNCTION     0.13     1.26    33.26     0  14:15        1.26
  CSO9                 JUNCTION     0.10     0.64    40.64     0  14:15        0.38
  J1                   JUNCTION     0.07     0.18    34.18     0  12:46        0.17
  J10                  JUNCTION     0.09     0.25    29.25     0  14:17        0.24
  J11                  JUNCTION     0.10     0.25    31.25     0  14:17        0.24
  J12                  JUNCTION     0.23     1.00    27.00     0  15:29        1.00
  J13                  JUNCTION     0.06     0.13    29.13     0  14:20        0.13
  J14                  JUNCTION     0.11     0.19    20.19     0  14:42        0.19
  J15                  JUNCTION     0.16     0.32    15.32     0  12:51        0.31
  J16                  JUNCTION     0.07     0.20    30.20     0  12:46        0.19
  J17                  JUNCTION     0.06     0.14    20.14     0  14:35        0.14
  J18                  JUNCTION     0.06     0.15    29.15     0  12:49        0.15
  J19                  JUNCTION     0.14     0.17     8.17     0  13:13        0.17
  J2                   JUNCTION     0.06     0.08    25.08     0  14:56        0.08
  J3                   JUNCTION     0.11     0.16    18.16     0  15:36        0.16
  J4                   JUNCTION     0.11     0.19    33.19     0  14:23        0.19
  J5                   JUNCTION     0.06     0.10    32.10     0  14:22        0.10
  J6                   JUNCTION     0.06     0.11    25.11     0  14:30        0.11
  J7                   JUNCTION     0.08     0.18    39.18     0  14:20        0.18
  J8                   JUNCTION     0.10     0.21    36.21     0  14:20        0.21
  J9                   JUNCTION     0.10     0.16    29.16     0  14:55        0.16
  Out_to_WWTP          OUTFALL      0.14     0.17     6.17     0  05:35        0.17
  T1                   STORAGE      3.22     5.00    15.00     0  05:14        5.00
  T2                   STORAGE      2.38     4.49    25.49     0  16:20        4.49
  T3                   STORAGE      2.69     5.00    27.00     0  15:14        5.00
  T4                   STORAGE      1.86     3.53    30.53     0  16:20        3.53
  T5                   STORAGE      2.46     4.46    31.46     0  14:55        4.46
  T6                   STORAGE      2.65     5.00    36.00     0  14:18        5.00
  
  
  *******************
  Node Inflow Summary
  *******************
  
  -------------------------------------------------------------------------------------------------
                                  Maximum  Maximum                  Lateral       Total        Flow
                                  Lateral    Total  Time of Max      Inflow      Inflow     Balance
                                   Inflow   Inflow   Occurrence      Volume      Volume       Error
  Node                 Type           CMS      CMS  days hr:min    10^6 ltr    10^6 ltr     Percent
  -------------------------------------------------------------------------------------------------
  CSO10                JUNCTION     0.182    0.182     0  12:45        1.44        1.44       0.069
  CSO7                 JUNCTION     0.043    0.043     0  14:20       0.879       0.881       0.200
  CSO8                 JUNCTION     0.384    0.384     0  14:15        3.05        3.05       0.122
  CSO9                 JUNCTION     0.087    0.087     0  14:15        0.97        0.97       0.153
  J1                   JUNCTION     0.304    0.304     0  12:45        2.36        2.36       0.151
  J10                  JUNCTION     0.379    0.673     0  14:16        2.27        5.31      -0.006
  J11                  JUNCTION     0.000    0.384     0  14:15           0        3.05       0.160
  J12                  JUNCTION     0.000    0.819     0  14:17           0        9.21      10.316
  J13                  JUNCTION     0.229    0.229     0  14:20        3.21        3.22       0.071
  J14                  JUNCTION     0.000    0.190     0  15:14           0        4.23      -1.997
  J15                  JUNCTION     0.000    0.983     0  12:48           0        14.2       1.184
  J16                  JUNCTION     0.669    0.669     0  12:45        4.26        4.27       0.037
  J17                  JUNCTION     0.000    0.126     0  14:32           0        1.46      -0.278
  J18                  JUNCTION     0.000    0.175     0  12:47           0        1.44       0.075
  J19                  JUNCTION     0.000    0.271     0  05:14           0        11.9       0.103
  J2                   JUNCTION     0.000    0.037     0  14:55           0        1.52       0.348
  J3                   JUNCTION     0.000    0.250     0  15:33           0        7.03       0.314
  J4                   JUNCTION     0.000    0.043     0  14:20           0       0.879       0.656
  J5                   JUNCTION     0.053    0.089     0  14:20        0.94        1.81       0.202
  J6                   JUNCTION     0.000    0.061     0  14:30           0        1.21       0.304
  J7                   JUNCTION     0.000    0.086     0  14:15           0       0.969       0.472
  J8                   JUNCTION     0.337    0.410     0  14:18        4.51        5.48       0.272
  J9                   JUNCTION     0.000    0.175     0  14:19           0        3.85      -0.955
  Out_to_WWTP          OUTFALL      0.000    0.271     0  13:13           0        11.9       0.000
  T1                   STORAGE      0.000    0.897     0  12:51           0          14       5.670
  T2                   STORAGE      0.000    0.226     0  14:20           0        3.22      36.163
  T3                   STORAGE      0.000    0.595     0  14:19           0        8.35      21.869
  T4                   STORAGE      0.000    0.088     0  14:22           0        1.81      16.051
  T5                   STORAGE      0.000    0.299     0  12:46           0        2.35      20.626
  T6                   STORAGE      0.000    0.408     0  14:20           0        5.46      16.825
  
  
  **********************
  Node Surcharge Summary
  **********************
  
  Surcharging occurs when water rises above the top of the highest conduit.
  ---------------------------------------------------------------------
                                               Max. Height   Min. Depth
                                   Hours       Above Crown    Below Rim
  Node                 Type      Surcharged         Meters       Meters
  ---------------------------------------------------------------------
  CSO10                JUNCTION        0.07          0.136        0.424
  CSO8                 JUNCTION        0.07          0.810        0.737
  CSO9                 JUNCTION        0.10          0.318        1.364
  
  
  *********************
  Node Flooding Summary
  *********************
  
  Flooding refers to all water that overflows a node, whether it ponds or not.
  --------------------------------------------------------------------------
                                                             Total   Maximum
                                 Maximum   Time of Max       Flood    Ponded
                        Hours       Rate    Occurrence      Volume     Depth
  Node                 Flooded       CMS   days hr:min    10^6 ltr    Meters
  --------------------------------------------------------------------------
  T1                      2.89     0.292      0  13:12       0.673     0.000
  T3                      0.27     0.134      0  15:32       0.045     0.000
  T6                      0.61     0.379      0  14:20       0.272     0.000
  
  
  **********************
  Storage Volume Summary
  **********************
  
  --------------------------------------------------------------------------------------------------
                         Average     Avg  Evap Exfil       Maximum     Max    Time of Max    Maximum
                          Volume    Pcnt  Pcnt  Pcnt        Volume    Pcnt     Occurrence    Outflow
  Storage Unit           1000 m3    Full  Loss  Loss       1000 m3    Full    days hr:min        CMS
  --------------------------------------------------------------------------------------------------
  T1                       0.451      64     0     0         0.700     100       0  05:14      0.271
  T2                       0.477      48     0     0         0.898      90       0  16:20      0.126
  T3                       1.401      54     0     0         2.600     100       0  15:14      0.190
  T4                       0.186      37     0     0         0.353      71       0  16:20      0.061
  T5                       0.246      49     0     0         0.446      89       0  14:55      0.037
  T6                       0.319      53     0     0         0.600     100       0  14:18      0.175
  
  
  ***********************
  Outfall Loading Summary
  ***********************
  
  -----------------------------------------------------------
                         Flow       Avg       Max       Total
                         Freq      Flow      Flow      Volume
  Outfall Node           Pcnt       CMS       CMS    10^6 ltr
  -----------------------------------------------------------
  Out_to_WWTP           99.49     0.204     0.271      11.883
  -----------------------------------------------------------
  System                99.49     0.204     0.271      11.883
  
  
  ********************
  Link Flow Summary
  ********************
  
  -----------------------------------------------------------------------------
                                 Maximum  Time of Max   Maximum    Max/    Max/
                                  |Flow|   Occurrence   |Veloc|    Full    Full
  Link                 Type          CMS  days hr:min     m/sec    Flow   Depth
  -----------------------------------------------------------------------------
  C1                   CONDUIT     0.037     0  14:57      1.01    0.01    0.12
  C10                  CONDUIT     0.408     0  14:20      1.55    0.04    0.57
  C11                  CONDUIT     0.250     0  15:37      1.90    0.01    0.11
  C12                  CONDUIT     0.175     0  14:55      1.51    0.01    0.29
  C13                  CONDUIT     0.595     0  14:19      1.39    0.03    0.75
  C14                  CONDUIT     0.271     0  13:13      2.08    0.02    0.09
  C15                  CONDUIT     0.384     0  14:15      2.93    1.22    0.78
  C16                  CONDUIT     0.345     0  14:17      1.54    0.03    0.12
  C17                  CONDUIT     0.646     0  14:17      2.16    0.03    0.27
  C18                  CONDUIT     0.226     0  14:20      5.94    0.01    0.53
  C19                  CONDUIT     0.124     0  14:35      1.52    0.04    0.22
  C2                   CONDUIT     0.061     0  14:30      1.62    0.07    0.21
  C20                  CONDUIT     0.658     0  12:46      4.25    0.02    0.13
  C21                  CONDUIT     0.175     0  12:47      1.79    1.00    0.67
  C22                  CONDUIT     0.172     0  12:49      1.49    0.08    0.29
  C23                  CONDUIT     0.897     0  12:51      1.16    0.10    0.61
  C3                   CONDUIT     0.190     0  15:17      2.18    0.07    0.17
  C4                   CONDUIT     0.299     0  12:46      4.82    0.07    0.59
  C5                   CONDUIT     0.043     0  14:20      1.19    0.73    0.68
  C6                   CONDUIT     0.040     0  14:23      1.19    0.64    0.48
  C7                   CONDUIT     0.088     0  14:22      1.35    0.02    0.55
  C8                   CONDUIT     0.086     0  14:15      1.36    1.09    0.78
  C9                   CONDUIT     0.080     0  14:20      1.15    0.27    0.39
  V1                   ORIFICE     0.271     0  05:14                      1.00
  V2                   ORIFICE     0.126     0  14:32                      1.00
  V3                   ORIFICE     0.190     0  15:14                      1.00
  V4                   ORIFICE     0.061     0  14:30                      1.00
  V5                   ORIFICE     0.037     0  14:55                      1.00
  V6                   ORIFICE     0.175     0  14:19                      1.00
  
  
  ***************************
  Flow Classification Summary
  ***************************
  
  -------------------------------------------------------------------------------------
                      Adjusted    ---------- Fraction of Time in Flow Class ---------- 
                       /Actual         Up    Down  Sub   Sup   Up    Down  Norm  Inlet 
  Conduit               Length    Dry  Dry   Dry   Crit  Crit  Crit  Crit  Ltd   Ctrl  
  -------------------------------------------------------------------------------------
  C1                      1.00   0.00  0.00  0.00  0.41  0.59  0.00  0.00  0.97  0.00
  C10                     1.00   0.00  0.00  0.00  0.97  0.03  0.00  0.00  0.99  0.00
  C11                     1.00   0.00  0.00  0.00  0.18  0.82  0.00  0.00  1.00  0.00
  C12                     1.00   0.00  0.00  0.00  0.71  0.29  0.00  0.00  0.92  0.00
  C13                     1.00   0.00  0.00  0.00  0.91  0.09  0.00  0.00  0.79  0.00
  C14                     1.00   0.00  0.00  0.00  0.01  0.99  0.00  0.00  0.40  0.00
  C15                     1.00   0.02  0.00  0.00  0.00  0.98  0.00  0.00  0.00  0.00
  C16                     1.00   0.00  0.02  0.00  0.29  0.70  0.00  0.00  0.21  0.00
  C17                     1.00   0.00  0.00  0.00  0.27  0.73  0.00  0.00  0.98  0.00
  C18                     1.00   0.00  0.00  0.00  0.97  0.03  0.00  0.00  0.99  0.00
  C19                     1.00   0.00  0.00  0.00  0.94  0.06  0.00  0.00  1.00  0.00
  C2                      1.00   0.00  0.00  0.00  0.34  0.66  0.00  0.00  0.99  0.00
  C20                     1.00   0.00  0.00  0.00  0.54  0.46  0.00  0.00  0.99  0.00
  C21                     1.00   0.00  0.00  0.00  0.01  0.99  0.00  0.00  0.00  0.00
  C22                     1.00   0.00  0.00  0.00  0.95  0.05  0.00  0.00  1.00  0.00
  C23                     1.00   0.00  0.00  0.00  0.92  0.08  0.00  0.00  0.97  0.00
  C3                      1.00   0.00  0.00  0.00  0.03  0.97  0.00  0.00  0.60  0.00
  C4                      1.00   0.00  0.00  0.00  0.98  0.02  0.00  0.00  0.99  0.00
  C5                      1.00   0.00  0.00  0.00  0.81  0.19  0.00  0.00  0.99  0.00
  C6                      1.00   0.00  0.00  0.00  0.00  0.99  0.00  0.00  0.00  0.00
  C7                      1.00   0.00  0.00  0.00  0.97  0.03  0.00  0.00  0.98  0.00
  C8                      1.00   0.00  0.00  0.00  0.04  0.96  0.00  0.00  0.00  0.00
  C9                      1.00   0.00  0.00  0.00  1.00  0.00  0.00  0.00  1.00  0.00
  
  
  *************************
  Conduit Surcharge Summary
  *************************
  
  ----------------------------------------------------------------------------
                                                           Hours        Hours 
                         --------- Hours Full --------   Above Full   Capacity
  Conduit                Both Ends  Upstream  Dnstream   Normal Flow   Limited
  ----------------------------------------------------------------------------
  C10                         0.01      0.01     11.95      0.01         0.01
  C13                         0.01      0.01     11.89      0.01         0.01
  C15                         0.01      0.07      0.01      0.10         0.01
  C18                         0.01      0.01     11.83      0.01         0.01
  C21                         0.01      0.07      0.01      0.03         0.01
  C23                         0.01      0.01     13.48      0.01         0.01
  C4                          0.01      0.01     13.24      0.01         0.01
  C7                          0.01      0.01     12.29      0.01         0.01
  C8                          0.01      0.10      0.01      0.09         0.01
  

  Analysis begun on:  Sun Jul 17 20:21:18 2022
  Analysis ended on:  Sun Jul 17 20:21:21 2022
  Total elapsed time: 00:00:03