
  EPA STORM WATER MANAGEMENT MODEL - VERSION 5.1 (Build 5.3.0.dev0)
  --------------------------------------------------------------

  
  *********************************************************
  NOTE: The summary statistics displayed in this report are
  based on results found at every computational time step,  
  not just on results from each reporting time step.
  *********************************************************
  
  ****************
  Analysis Options
  ****************
  Flow Units ............... CMS
  Process Models:
    Rainfall/Runoff ........ YES
    RDII ................... NO
    Snowmelt ............... NO
    Groundwater ............ NO
    Flow Routing ........... YES
    Ponding Allowed ........ NO
    Water Quality .......... NO
  Infiltration Method ...... HORTON
  Flow Routing Method ...... DYNWAVE
  Surcharge Method ......... EXTRAN
  Starting Date ............ 10/25/2009 19:40:00
  Ending Date .............. 10/26/2009 02:10:00
  Antecedent Dry Days ...... 0.0
  Report Time Step ......... 00:05:00
  Wet Time Step ............ 00:05:00
  Dry Time Step ............ 01:00:00
  Routing Time Step ........ 30.00 sec
  Variable Time Step ....... YES
  Maximum Trials ........... 8
  Number of Threads ........ 1
  Head Tolerance ........... 0.001500 m
  
  
  **************************        Volume         Depth
  Runoff Quantity Continuity     hectare-m            mm
  **************************     ---------       -------
  Total Precipitation ......         1.386         7.694
  Evaporation Loss .........         0.000         0.000
  Infiltration Loss ........         0.000         0.000
  Surface Runoff ...........         1.343         7.455
  Final Storage ............         0.048         0.267
  Continuity Error (%) .....        -0.360
  
  
  **************************        Volume        Volume
  Flow Routing Continuity        hectare-m      10^6 ltr
  **************************     ---------     ---------
  Dry Weather Inflow .......         0.090         0.905
  Wet Weather Inflow .......         1.344        13.438
  Groundwater Inflow .......         0.000         0.000
  RDII Inflow ..............         0.000         0.000
  External Inflow ..........         0.000         0.000
  External Outflow .........         0.305         3.054
  Flooding Loss ............         0.184         1.836
  Evaporation Loss .........         0.000         0.000
  Exfiltration Loss ........         0.000         0.000
  Initial Stored Volume ....         0.000         0.000
  Final Stored Volume ......         0.708         7.079
  Continuity Error (%) .....        16.551
  
  
  *************************
  Highest Continuity Errors
  *************************
  Node T2 (38.67%)
  Node T4 (32.14%)
  Node T5 (31.78%)
  Node T6 (27.39%)
  Node T3 (26.02%)
  
  
  ***************************
  Time-Step Critical Elements
  ***************************
  Link C15 (38.49%)
  
  
  ********************************
  Highest Flow Instability Indexes
  ********************************
  Link C13 (5)
  Link C5 (3)
  Link C6 (3)
  Link V3 (2)
  Link C3 (2)
  
  
  *************************
  Routing Time Step Summary
  *************************
  Minimum Time Step           :     0.43 sec
  Average Time Step           :    24.57 sec
  Maximum Time Step           :    30.00 sec
  Percent in Steady State     :     0.90
  Average Iterations per Step :     2.73
  Percent Not Converging      :     3.92
  
  
  ***************************
  Subcatchment Runoff Summary
  ***************************
  
  ------------------------------------------------------------------------------------------------------------------------------
                            Total      Total      Total      Total     Imperv       Perv      Total       Total     Peak  Runoff
                           Precip      Runon       Evap      Infil     Runoff     Runoff     Runoff      Runoff   Runoff   Coeff
  Subcatchment                 mm         mm         mm         mm         mm         mm         mm    10^6 ltr      CMS
  ------------------------------------------------------------------------------------------------------------------------------
  SC01                       6.73       0.00       0.00       0.00       6.60       0.00       6.60        2.18     0.72   0.980
  SC010                      6.73       0.00       0.00       0.00       6.52       0.00       6.52        0.77     0.24   0.969
  SC02                       7.85       0.00       0.00       0.00       7.71       0.00       7.71        1.75     0.56   0.983
  SC03                       9.06       0.00       0.00       0.00       9.00       0.00       9.00        1.62     0.72   0.994
  SC04                       7.85       0.00       0.00       0.00       7.45       0.00       7.45        0.51     0.12   0.949
  SC05                       6.73       0.00       0.00       0.00       6.58       0.00       6.58        1.03     0.34   0.977
  SC06                       7.44       0.00       0.00       0.00       6.90       0.00       6.90        2.25     0.59   0.927
  SC07                       7.85       0.00       0.00       0.00       7.45       0.00       7.45        0.35     0.09   0.949
  SC08                       9.06       0.00       0.00       0.00       8.87       0.00       8.87        2.48     0.92   0.978
  SC09                       7.44       0.00       0.00       0.00       7.16       0.00       7.16        0.49     0.16   0.962
  
  
  ******************
  Node Depth Summary
  ******************
  
  ---------------------------------------------------------------------------------
                                 Average  Maximum  Maximum  Time of Max    Reported
                                   Depth    Depth      HGL   Occurrence   Max Depth
  Node                 Type       Meters   Meters   Meters  days hr:min      Meters
  ---------------------------------------------------------------------------------
  CSO10                JUNCTION     0.22     1.00    31.00     0  03:55        1.00
  CSO7                 JUNCTION     0.31     1.20    35.20     0  03:38        1.20
  CSO8                 JUNCTION     0.51     2.00    34.00     0  03:34        2.00
  CSO9                 JUNCTION     0.35     2.00    42.00     0  03:48        2.00
  J1                   JUNCTION     0.07     0.19    34.19     0  04:05        0.19
  J10                  JUNCTION     0.12     0.33    29.33     0  03:46        0.32
  J11                  JUNCTION     0.12     0.30    31.30     0  04:10        0.30
  J12                  JUNCTION     0.21     0.45    26.45     0  05:27        0.44
  J13                  JUNCTION     0.08     0.20    29.20     0  03:35        0.20
  J14                  JUNCTION     0.09     0.18    20.18     0  04:17        0.17
  J15                  JUNCTION     0.16     0.36    15.36     0  04:06        0.36
  J16                  JUNCTION     0.07     0.21    30.21     0  04:05        0.21
  J17                  JUNCTION     0.05     0.13    20.13     0  04:20        0.13
  J18                  JUNCTION     0.06     0.16    29.16     0  04:16        0.16
  J19                  JUNCTION     0.11     0.17     8.17     0  04:14        0.17
  J2                   JUNCTION     0.05     0.08    25.08     0  05:00        0.08
  J3                   JUNCTION     0.08     0.14    18.14     0  04:20        0.14
  J4                   JUNCTION     0.22     0.94    33.94     0  03:38        0.74
  J5                   JUNCTION     0.07     0.15    32.15     0  04:01        0.15
  J6                   JUNCTION     0.04     0.07    25.07     0  04:45        0.07
  J7                   JUNCTION     0.09     0.23    39.23     0  04:07        0.23
  J8                   JUNCTION     0.12     0.28    36.28     0  04:00        0.28
  J9                   JUNCTION     0.08     0.16    29.16     0  04:59        0.16
  Out_to_WWTP          OUTFALL      0.11     0.17     6.17     0  05:03        0.17
  T1                   STORAGE      2.04     5.00    15.00     0  04:12        5.00
  T2                   STORAGE      1.56     3.74    24.74     0  05:43        3.74
  T3                   STORAGE      1.81     4.45    26.45     0  05:31        4.44
  T4                   STORAGE      1.61     4.14    31.14     0  05:54        4.14
  T5                   STORAGE      1.65     4.32    31.32     0  04:58        4.32
  T6                   STORAGE      2.22     5.00    36.00     0  04:22        5.00
  
  
  *******************
  Node Inflow Summary
  *******************
  
  -------------------------------------------------------------------------------------------------
                                  Maximum  Maximum                  Lateral       Total        Flow
                                  Lateral    Total  Time of Max      Inflow      Inflow     Balance
                                   Inflow   Inflow   Occurrence      Volume      Volume       Error
  Node                 Type           CMS      CMS  days hr:min    10^6 ltr    10^6 ltr     Percent
  -------------------------------------------------------------------------------------------------
  CSO10                JUNCTION     0.243    0.243     0  04:05       0.802       0.802       0.090
  CSO7                 JUNCTION     0.087    0.087     0  04:00       0.426       0.426       0.096
  CSO8                 JUNCTION     0.921    0.921     0  03:50        2.48        2.48       0.007
  CSO9                 JUNCTION     0.160    0.160     0  03:55       0.543       0.543       0.087
  J1                   JUNCTION     0.338    0.338     0  04:05        1.17        1.17      -0.168
  J10                  JUNCTION     0.723    1.209     0  03:45        1.71        3.76      -0.056
  J11                  JUNCTION     0.000    0.487     0  04:10           0        2.06       0.290
  J12                  JUNCTION     0.000    1.259     0  03:46           0        4.91       4.640
  J13                  JUNCTION     0.566    0.566     0  03:35        1.87        1.87      -0.585
  J14                  JUNCTION     0.000    0.160     0  04:20           0        1.21       0.578
  J15                  JUNCTION     0.000    1.153     0  04:05           0        5.31       1.360
  J16                  JUNCTION     0.720    0.720     0  04:05        2.32        2.32      -0.065
  J17                  JUNCTION     0.000    0.110     0  04:20           0       0.411       0.817
  J18                  JUNCTION     0.000    0.202     0  04:16           0       0.771       0.067
  J19                  JUNCTION     0.000    0.271     0  04:12           0        3.07       0.388
  J2                   JUNCTION     0.000    0.036     0  04:58           0       0.424       1.213
  J3                   JUNCTION     0.000    0.214     0  04:20           0        1.85       1.919
  J4                   JUNCTION     0.000    0.076     0  03:35           0       0.405       0.407
  J5                   JUNCTION     0.125    0.196     0  04:00       0.546       0.949       0.034
  J6                   JUNCTION     0.000    0.024     0  04:45           0       0.233       0.996
  J7                   JUNCTION     0.000    0.127     0  04:07           0       0.519       0.374
  J8                   JUNCTION     0.590    0.717     0  04:00        2.48           3       0.174
  J9                   JUNCTION     0.000    0.175     0  04:22           0        1.15       0.510
  Out_to_WWTP          OUTFALL      0.000    0.271     0  04:14           0        3.05       0.000
  T1                   STORAGE      0.000    1.142     0  04:06           0        5.24      15.040
  T2                   STORAGE      0.000    0.559     0  03:35           0        1.88      63.058
  T3                   STORAGE      0.000    1.237     0  03:50           0         4.7      35.178
  T4                   STORAGE      0.000    0.195     0  04:01           0       0.949      47.371
  T5                   STORAGE      0.000    0.337     0  04:05           0        1.17      46.585
  T6                   STORAGE      0.000    0.715     0  04:00           0        2.99      37.717
  
  
  **********************
  Node Surcharge Summary
  **********************
  
  Surcharging occurs when water rises above the top of the highest conduit.
  ---------------------------------------------------------------------
                                               Max. Height   Min. Depth
                                   Hours       Above Crown    Below Rim
  Node                 Type      Surcharged         Meters       Meters
  ---------------------------------------------------------------------
  CSO10                JUNCTION        0.55          0.560        0.000
  CSO7                 JUNCTION        0.81          0.945        0.000
  CSO8                 JUNCTION        0.87          1.547        0.000
  CSO9                 JUNCTION        0.66          1.682        0.000
  J4                   JUNCTION        0.77          0.641        1.059
  
  
  *********************
  Node Flooding Summary
  *********************
  
  Flooding refers to all water that overflows a node, whether it ponds or not.
  --------------------------------------------------------------------------
                                                             Total   Maximum
                                 Maximum   Time of Max       Flood    Ponded
                        Hours       Rate    Occurrence      Volume     Depth
  Node                 Flooded       CMS   days hr:min    10^6 ltr    Meters
  --------------------------------------------------------------------------
  CSO10                   0.36     0.040      0  04:05       0.030     0.000
  CSO7                    0.62     0.016      0  04:00       0.021     0.000
  CSO8                    0.61     0.435      0  03:50       0.425     0.000
  CSO9                    0.32     0.033      0  03:55       0.023     0.000
  T1                      0.69     0.831      0  04:12       0.903     0.000
  T6                      0.61     0.469      0  04:25       0.430     0.000
  
  
  **********************
  Storage Volume Summary
  **********************
  
  --------------------------------------------------------------------------------------------------
                         Average     Avg  Evap Exfil       Maximum     Max    Time of Max    Maximum
                          Volume    Pcnt  Pcnt  Pcnt        Volume    Pcnt     Occurrence    Outflow
  Storage Unit           1000 m3    Full  Loss  Loss       1000 m3    Full    days hr:min        CMS
  --------------------------------------------------------------------------------------------------
  T1                       0.286      41     0     0         0.700     100       0  04:12      0.271
  T2                       0.312      31     0     0         0.749      75       0  05:43      0.110
  T3                       0.939      36     0     0         2.313      89       0  05:31      0.160
  T4                       0.161      32     0     0         0.414      83       0  05:54      0.024
  T5                       0.165      33     0     0         0.432      86       0  04:58      0.036
  T6                       0.267      44     0     0         0.600     100       0  04:22      0.175
  
  
  ***********************
  Outfall Loading Summary
  ***********************
  
  -----------------------------------------------------------
                         Flow       Avg       Max       Total
                         Freq      Flow      Flow      Volume
  Outfall Node           Pcnt       CMS       CMS    10^6 ltr
  -----------------------------------------------------------
  Out_to_WWTP           98.84     0.137     0.271       3.054
  -----------------------------------------------------------
  System                98.84     0.137     0.271       3.054
  
  
  ********************
  Link Flow Summary
  ********************
  
  -----------------------------------------------------------------------------
                                 Maximum  Time of Max   Maximum    Max/    Max/
                                  |Flow|   Occurrence   |Veloc|    Full    Full
  Link                 Type          CMS  days hr:min     m/sec    Flow   Depth
  -----------------------------------------------------------------------------
  C1                   CONDUIT     0.036     0  05:00      1.05    0.01    0.10
  C10                  CONDUIT     0.715     0  04:00      1.62    0.07    0.59
  C11                  CONDUIT     0.195     0  04:20      1.70    0.01    0.12
  C12                  CONDUIT     0.175     0  04:59      1.22    0.01    0.15
  C13                  CONDUIT     1.237     0  03:50      2.02    0.07    0.61
  C14                  CONDUIT     0.271     0  04:14      2.08    0.02    0.09
  C15                  CONDUIT     0.487     0  04:10      3.43    1.55    0.83
  C16                  CONDUIT     0.488     0  03:41      1.80    0.05    0.16
  C17                  CONDUIT     1.187     0  03:46      3.32    0.06    0.17
  C18                  CONDUIT     0.559     0  03:35      3.92    0.02    0.54
  C19                  CONDUIT     0.109     0  04:20      0.78    0.04    0.24
  C2                   CONDUIT     0.024     0  04:45      1.11    0.03    0.17
  C20                  CONDUIT     0.718     0  04:05      3.28    0.02    0.14
  C21                  CONDUIT     0.202     0  04:16      1.82    1.16    0.69
  C22                  CONDUIT     0.202     0  04:16      1.55    0.09    0.33
  C23                  CONDUIT     1.142     0  04:06      1.38    0.13    0.62
  C3                   CONDUIT     0.161     0  04:20      2.13    0.06    0.16
  C4                   CONDUIT     0.337     0  04:05      3.48    0.08    0.60
  C5                   CONDUIT     0.076     0  03:35      1.49    1.30    1.00
  C6                   CONDUIT     0.071     0  04:01      1.28    1.13    0.75
  C7                   CONDUIT     0.195     0  04:01      1.41    0.05    0.57
  C8                   CONDUIT     0.127     0  04:07      1.81    1.60    0.86
  C9                   CONDUIT     0.127     0  04:07      1.30    0.43    0.51
  V1                   ORIFICE     0.271     0  04:12                      1.00
  V2                   ORIFICE     0.110     0  04:20                      1.00
  V3                   ORIFICE     0.160     0  04:20                      1.00
  V4                   ORIFICE     0.024     0  04:45                      1.00
  V5                   ORIFICE     0.036     0  04:58                      1.00
  V6                   ORIFICE     0.175     0  04:22                      1.00
  
  
  ***************************
  Flow Classification Summary
  ***************************
  
  -------------------------------------------------------------------------------------
                      Adjusted    ---------- Fraction of Time in Flow Class ---------- 
                       /Actual         Up    Down  Sub   Sup   Up    Down  Norm  Inlet 
  Conduit               Length    Dry  Dry   Dry   Crit  Crit  Crit  Crit  Ltd   Ctrl  
  -------------------------------------------------------------------------------------
  C1                      1.00   0.00  0.00  0.00  0.41  0.59  0.00  0.00  0.94  0.00
  C10                     1.00   0.00  0.00  0.00  0.96  0.04  0.00  0.00  0.97  0.00
  C11                     1.00   0.00  0.00  0.00  0.36  0.64  0.00  0.00  1.00  0.00
  C12                     1.00   0.00  0.00  0.00  0.95  0.05  0.00  0.00  0.99  0.00
  C13                     1.00   0.00  0.00  0.00  0.78  0.22  0.00  0.00  0.53  0.00
  C14                     1.00   0.01  0.01  0.00  0.01  0.98  0.00  0.00  0.40  0.00
  C15                     1.00   0.05  0.00  0.00  0.01  0.95  0.00  0.00  0.00  0.00
  C16                     1.00   0.00  0.05  0.00  0.39  0.56  0.00  0.00  0.50  0.00
  C17                     1.00   0.00  0.00  0.00  0.24  0.76  0.00  0.00  0.94  0.00
  C18                     1.00   0.00  0.00  0.00  0.62  0.38  0.00  0.00  0.95  0.00
  C19                     1.00   0.00  0.00  0.00  1.00  0.00  0.00  0.00  1.00  0.00
  C2                      1.00   0.00  0.00  0.00  0.65  0.34  0.00  0.00  0.94  0.00
  C20                     1.00   0.00  0.00  0.00  0.56  0.44  0.00  0.00  0.98  0.00
  C21                     1.00   0.00  0.00  0.00  0.01  0.99  0.00  0.00  0.00  0.00
  C22                     1.00   0.00  0.00  0.00  0.70  0.30  0.00  0.00  1.00  0.00
  C23                     1.00   0.00  0.00  0.00  0.87  0.13  0.00  0.00  0.94  0.00
  C3                      1.00   0.00  0.01  0.00  0.08  0.91  0.00  0.00  0.29  0.00
  C4                      1.00   0.00  0.00  0.00  0.95  0.05  0.00  0.00  0.98  0.00
  C5                      1.00   0.00  0.00  0.00  0.91  0.09  0.00  0.00  0.81  0.00
  C6                      1.00   0.00  0.00  0.00  0.27  0.73  0.00  0.00  0.00  0.00
  C7                      1.00   0.00  0.00  0.00  0.89  0.11  0.00  0.00  0.95  0.00
  C8                      1.00   0.00  0.00  0.00  0.28  0.72  0.00  0.00  0.00  0.00
  C9                      1.00   0.00  0.00  0.00  1.00  0.00  0.00  0.00  1.00  0.00
  
  
  *************************
  Conduit Surcharge Summary
  *************************
  
  ----------------------------------------------------------------------------
                                                           Hours        Hours 
                         --------- Hours Full --------   Above Full   Capacity
  Conduit                Both Ends  Upstream  Dnstream   Normal Flow   Limited
  ----------------------------------------------------------------------------
  C10                         0.01      0.01      2.62      0.01         0.01
  C13                         0.01      0.01      2.60      0.01         0.01
  C15                         0.01      0.86      0.01      0.90         0.01
  C18                         0.01      0.01      2.57      0.01         0.01
  C21                         0.01      0.55      0.01      0.53         0.01
  C23                         0.01      0.01      2.63      0.01         0.01
  C4                          0.01      0.01      2.66      0.01         0.01
  C5                          0.77      0.81      0.87      0.83         0.76
  C6                          0.01      0.77      0.01      0.69         0.01
  C7                          0.01      0.01      2.75      0.01         0.01
  C8                          0.01      0.66      0.01      0.67         0.01
  

  Analysis begun on:  Sun Jul 17 21:46:42 2022
  Analysis ended on:  Sun Jul 17 21:46:42 2022
  Total elapsed time: < 1 sec