
  EPA STORM WATER MANAGEMENT MODEL - VERSION 5.1 (Build 5.3.0.dev0)
  --------------------------------------------------------------

  
  *********************************************************
  NOTE: The summary statistics displayed in this report are
  based on results found at every computational time step,  
  not just on results from each reporting time step.
  *********************************************************
  
  ****************
  Analysis Options
  ****************
  Flow Units ............... CMS
  Process Models:
    Rainfall/Runoff ........ YES
    RDII ................... NO
    Snowmelt ............... NO
    Groundwater ............ NO
    Flow Routing ........... YES
    Ponding Allowed ........ NO
    Water Quality .......... NO
  Infiltration Method ...... HORTON
  Flow Routing Method ...... DYNWAVE
  Surcharge Method ......... EXTRAN
  Starting Date ............ 07/08/2008 18:15:00
  Ending Date .............. 07/09/2008 03:10:00
  Antecedent Dry Days ...... 0.0
  Report Time Step ......... 00:05:00
  Wet Time Step ............ 00:05:00
  Dry Time Step ............ 01:00:00
  Routing Time Step ........ 30.00 sec
  Variable Time Step ....... YES
  Maximum Trials ........... 8
  Number of Threads ........ 1
  Head Tolerance ........... 0.001500 m
  
  
  **************************        Volume         Depth
  Runoff Quantity Continuity     hectare-m            mm
  **************************     ---------       -------
  Total Precipitation ......         2.155        11.961
  Evaporation Loss .........         0.000         0.000
  Infiltration Loss ........         0.000         0.000
  Surface Runoff ...........         2.129        11.816
  Final Storage ............         0.033         0.182
  Continuity Error (%) .....        -0.307
  
  
  **************************        Volume        Volume
  Flow Routing Continuity        hectare-m      10^6 ltr
  **************************     ---------     ---------
  Dry Weather Inflow .......         0.145         1.453
  Wet Weather Inflow .......         2.130        21.299
  Groundwater Inflow .......         0.000         0.000
  RDII Inflow ..............         0.000         0.000
  External Inflow ..........         0.000         0.000
  External Outflow .........         0.713         7.126
  Flooding Loss ............         0.546         5.456
  Evaporation Loss .........         0.000         0.000
  Exfiltration Loss ........         0.000         0.000
  Initial Stored Volume ....         0.000         0.000
  Final Stored Volume ......         0.763         7.629
  Continuity Error (%) .....        11.167
  
  
  *************************
  Highest Continuity Errors
  *************************
  Node T2 (29.10%)
  Node T6 (24.85%)
  Node T5 (23.80%)
  Node T4 (18.79%)
  Node T3 (14.66%)
  
  
  ***************************
  Time-Step Critical Elements
  ***************************
  Link C15 (61.57%)
  Link C21 (4.88%)
  
  
  ********************************
  Highest Flow Instability Indexes
  ********************************
  Link C13 (9)
  Link V3 (3)
  Link C11 (3)
  Link C23 (2)
  Link C21 (2)
  
  
  *************************
  Routing Time Step Summary
  *************************
  Minimum Time Step           :     0.60 sec
  Average Time Step           :    22.79 sec
  Maximum Time Step           :    30.00 sec
  Percent in Steady State     :     6.27
  Average Iterations per Step :     2.65
  Percent Not Converging      :     2.20
  
  
  ***************************
  Subcatchment Runoff Summary
  ***************************
  
  ------------------------------------------------------------------------------------------------------------------------------
                            Total      Total      Total      Total     Imperv       Perv      Total       Total     Peak  Runoff
                           Precip      Runon       Evap      Infil     Runoff     Runoff     Runoff      Runoff   Runoff   Coeff
  Subcatchment                 mm         mm         mm         mm         mm         mm         mm    10^6 ltr      CMS
  ------------------------------------------------------------------------------------------------------------------------------
  SC01                      11.25       0.00       0.00       0.00      11.18       0.00      11.18        3.69     0.70   0.994
  SC010                     11.25       0.00       0.00       0.00      11.12       0.00      11.12        1.31     0.21   0.989
  SC02                      13.79       0.00       0.00       0.00      13.69       0.00      13.69        3.11     0.41   0.992
  SC03                      14.16       0.00       0.00       0.00      14.13       0.00      14.13        2.54     0.49   0.998
  SC04                      13.79       0.00       0.00       0.00      13.51       0.00      13.51        0.93     0.09   0.980
  SC05                      11.25       0.00       0.00       0.00      11.16       0.00      11.16        1.74     0.32   0.992
  SC06                       8.89       0.00       0.00       0.00       8.59       0.00       8.59        2.80     0.24   0.966
  SC07                      13.79       0.00       0.00       0.00      13.51       0.00      13.51        0.64     0.06   0.980
  SC08                      14.16       0.00       0.00       0.00      14.02       0.00      14.02        3.93     0.52   0.990
  SC09                       8.89       0.00       0.00       0.00       8.72       0.00       8.72        0.60     0.06   0.981
  
  
  ******************
  Node Depth Summary
  ******************
  
  ---------------------------------------------------------------------------------
                                 Average  Maximum  Maximum  Time of Max    Reported
                                   Depth    Depth      HGL   Occurrence   Max Depth
  Node                 Type       Meters   Meters   Meters  days hr:min      Meters
  ---------------------------------------------------------------------------------
  CSO10                JUNCTION     0.17     1.00    31.00     0  05:19        1.00
  CSO7                 JUNCTION     0.16     1.19    35.19     0  02:09        1.16
  CSO8                 JUNCTION     0.40     2.00    34.00     0  01:54        2.00
  CSO9                 JUNCTION     0.12     0.24    40.24     0  02:00        0.23
  J1                   JUNCTION     0.08     0.19    34.19     0  05:20        0.18
  J10                  JUNCTION     0.14     0.29    29.29     0  01:58        0.29
  J11                  JUNCTION     0.15     0.30    31.30     0  02:11        0.30
  J12                  JUNCTION     0.62     1.04    27.04     0  03:51        1.03
  J13                  JUNCTION     0.09     0.17    29.17     0  02:05        0.17
  J14                  JUNCTION     0.14     0.19    20.19     0  03:12        0.19
  J15                  JUNCTION     0.20     0.35    15.35     0  05:24        0.35
  J16                  JUNCTION     0.09     0.20    30.20     0  05:20        0.20
  J17                  JUNCTION     0.07     0.15    20.15     0  04:40        0.15
  J18                  JUNCTION     0.07     0.16    29.16     0  05:21        0.16
  J19                  JUNCTION     0.15     0.17     8.17     0  02:41        0.17
  J2                   JUNCTION     0.06     0.08    25.08     0  05:57        0.08
  J3                   JUNCTION     0.12     0.17    18.17     0  04:12        0.17
  J4                   JUNCTION     0.16     0.81    33.81     0  02:09        0.74
  J5                   JUNCTION     0.08     0.14    32.14     0  02:15        0.14
  J6                   JUNCTION     0.06     0.12    25.12     0  04:22        0.12
  J7                   JUNCTION     0.09     0.16    39.16     0  02:04        0.16
  J8                   JUNCTION     0.12     0.18    36.18     0  02:05        0.18
  J9                   JUNCTION     0.10     0.16    29.16     0  04:54        0.16
  Out_to_WWTP          OUTFALL      0.15     0.17     6.17     0  06:21        0.17
  T1                   STORAGE      3.64     5.00    15.00     0  02:40        5.00
  T2                   STORAGE      3.56     5.00    26.00     0  04:12        5.00
  T3                   STORAGE      3.76     5.00    27.00     0  03:45        5.00
  T4                   STORAGE      3.49     5.00    32.00     0  03:34        5.00
  T5                   STORAGE      3.01     5.00    32.00     0  05:21        5.00
  T6                   STORAGE      3.20     4.97    35.97     0  07:25        4.97
  
  
  *******************
  Node Inflow Summary
  *******************
  
  -------------------------------------------------------------------------------------------------
                                  Maximum  Maximum                  Lateral       Total        Flow
                                  Lateral    Total  Time of Max      Inflow      Inflow     Balance
                                   Inflow   Inflow   Occurrence      Volume      Volume       Error
  Node                 Type           CMS      CMS  days hr:min    10^6 ltr    10^6 ltr     Percent
  -------------------------------------------------------------------------------------------------
  CSO10                JUNCTION     0.215    0.215     0  05:20        1.36        1.36      -0.025
  CSO7                 JUNCTION     0.070    0.070     0  02:15       0.758       0.759      -0.074
  CSO8                 JUNCTION     0.517    0.517     0  01:55        3.93        3.94      -0.118
  CSO9                 JUNCTION     0.067    0.067     0  02:00        0.68        0.68       0.034
  J1                   JUNCTION     0.320    0.320     0  05:20        1.97        1.97      -0.241
  J10                  JUNCTION     0.502    0.926     0  01:57        2.69        6.65      -0.552
  J11                  JUNCTION     0.000    0.486     0  02:10           0        3.93      -0.431
  J12                  JUNCTION     0.000    1.000     0  01:58           0         9.1       3.818
  J13                  JUNCTION     0.416    0.416     0  02:05         3.3        3.31      -0.596
  J14                  JUNCTION     0.000    0.190     0  04:00           0        3.56       0.543
  J15                  JUNCTION     0.000    1.228     0  05:20           0        11.8       0.300
  J16                  JUNCTION     0.702    0.702     0  05:20        3.91        3.92      -0.265
  J17                  JUNCTION     0.000    0.140     0  04:21           0        1.27      -0.159
  J18                  JUNCTION     0.000    0.202     0  05:21           0        1.36      -0.252
  J19                  JUNCTION     0.000    0.271     0  02:40           0        7.14       0.158
  J2                   JUNCTION     0.000    0.039     0  05:21           0       0.958       0.572
  J3                   JUNCTION     0.000    0.306     0  04:03           0        5.28       0.418
  J4                   JUNCTION     0.000    0.070     0  02:15           0        0.76      -0.466
  J5                   JUNCTION     0.095    0.165     0  02:15       0.984        1.75      -0.293
  J6                   JUNCTION     0.000    0.080     0  03:35           0       0.769      -2.552
  J7                   JUNCTION     0.000    0.067     0  02:00           0        0.68      -0.083
  J8                   JUNCTION     0.261    0.315     0  02:25        3.17        3.85      -0.080
  J9                   JUNCTION     0.000    0.172     0  05:10           0        2.32       0.394
  Out_to_WWTP          OUTFALL      0.000    0.271     0  02:42           0        7.13       0.000
  T1                   STORAGE      0.000    1.088     0  05:24           0        11.8       5.527
  T2                   STORAGE      0.000    0.414     0  02:05           0        3.33      41.042
  T3                   STORAGE      0.000    0.961     0  02:03           0        8.77      17.183
  T4                   STORAGE      0.000    0.164     0  02:15           0        1.75      23.140
  T5                   STORAGE      0.000    0.315     0  05:21           0        1.97      31.233
  T6                   STORAGE      0.000    0.314     0  02:05           0        3.85      33.074
  
  
  **********************
  Node Surcharge Summary
  **********************
  
  Surcharging occurs when water rises above the top of the highest conduit.
  ---------------------------------------------------------------------
                                               Max. Height   Min. Depth
                                   Hours       Above Crown    Below Rim
  Node                 Type      Surcharged         Meters       Meters
  ---------------------------------------------------------------------
  CSO10                JUNCTION        0.12          0.560        0.000
  CSO7                 JUNCTION        0.47          0.930        0.015
  CSO8                 JUNCTION        0.98          1.547        0.000
  J4                   JUNCTION        0.41          0.505        1.195
  
  
  *********************
  Node Flooding Summary
  *********************
  
  Flooding refers to all water that overflows a node, whether it ponds or not.
  --------------------------------------------------------------------------
                                                             Total   Maximum
                                 Maximum   Time of Max       Flood    Ponded
                        Hours       Rate    Occurrence      Volume     Depth
  Node                 Flooded       CMS   days hr:min    10^6 ltr    Meters
  --------------------------------------------------------------------------
  CSO10                   0.04     0.013      0  05:20       0.001     0.000
  CSO8                    0.28     0.036      0  01:55       0.018     0.000
  T1                      3.51     0.817      0  05:24       3.513     0.000
  T2                      1.22     0.079      0  04:12       0.110     0.000
  T3                      1.68     0.634      0  03:59       1.417     0.000
  T4                      1.67     0.081      0  03:35       0.207     0.000
  T5                      0.61     0.275      0  05:21       0.185     0.000
  
  
  **********************
  Storage Volume Summary
  **********************
  
  --------------------------------------------------------------------------------------------------
                         Average     Avg  Evap Exfil       Maximum     Max    Time of Max    Maximum
                          Volume    Pcnt  Pcnt  Pcnt        Volume    Pcnt     Occurrence    Outflow
  Storage Unit           1000 m3    Full  Loss  Loss       1000 m3    Full    days hr:min        CMS
  --------------------------------------------------------------------------------------------------
  T1                       0.509      73     0     0         0.700     100       0  02:40      0.271
  T2                       0.713      71     0     0         1.000     100       0  04:12      0.140
  T3                       1.955      75     0     0         2.600     100       0  03:45      0.335
  T4                       0.349      70     0     0         0.500     100       0  03:34      0.080
  T5                       0.301      60     0     0         0.500     100       0  05:21      0.039
  T6                       0.384      64     0     0         0.597      99       0  07:25      0.172
  
  
  ***********************
  Outfall Loading Summary
  ***********************
  
  -----------------------------------------------------------
                         Flow       Avg       Max       Total
                         Freq      Flow      Flow      Volume
  Outfall Node           Pcnt       CMS       CMS    10^6 ltr
  -----------------------------------------------------------
  Out_to_WWTP           99.22     0.216     0.271       7.126
  -----------------------------------------------------------
  System                99.22     0.216     0.271       7.126
  
  
  ********************
  Link Flow Summary
  ********************
  
  -----------------------------------------------------------------------------
                                 Maximum  Time of Max   Maximum    Max/    Max/
                                  |Flow|   Occurrence   |Veloc|    Full    Full
  Link                 Type          CMS  days hr:min     m/sec    Flow   Depth
  -----------------------------------------------------------------------------
  C1                   CONDUIT     0.039     0  05:57      0.90    0.01    0.12
  C10                  CONDUIT     0.314     0  02:05      1.59    0.03    0.56
  C11                  CONDUIT     0.305     0  04:21      1.94    0.02    0.12
  C12                  CONDUIT     0.171     0  04:55      0.89    0.01    0.30
  C13                  CONDUIT     0.961     0  02:03      2.88    0.06    0.76
  C14                  CONDUIT     0.271     0  02:42      2.08    0.02    0.09
  C15                  CONDUIT     0.486     0  02:10      3.50    1.55    0.83
  C16                  CONDUIT     0.485     0  02:11      1.76    0.05    0.15
  C17                  CONDUIT     0.923     0  01:58      3.24    0.05    0.31
  C18                  CONDUIT     0.414     0  02:05      4.72    0.02    0.54
  C19                  CONDUIT     0.140     0  04:42      1.33    0.05    0.24
  C2                   CONDUIT     0.080     0  04:22      1.66    0.09    0.24
  C20                  CONDUIT     0.689     0  05:21      3.71    0.02    0.14
  C21                  CONDUIT     0.202     0  05:21      1.84    1.16    0.68
  C22                  CONDUIT     0.199     0  05:23      1.44    0.09    0.32
  C23                  CONDUIT     1.088     0  05:24      1.50    0.12    0.62
  C3                   CONDUIT     0.191     0  04:03      2.22    0.07    0.18
  C4                   CONDUIT     0.315     0  05:21      4.05    0.08    0.59
  C5                   CONDUIT     0.070     0  02:15      1.36    1.19    1.00
  C6                   CONDUIT     0.070     0  02:15      1.28    1.11    0.73
  C7                   CONDUIT     0.164     0  02:15      1.38    0.04    0.57
  C8                   CONDUIT     0.067     0  02:00      1.33    0.84    0.62
  C9                   CONDUIT     0.064     0  02:04      1.08    0.22    0.34
  V1                   ORIFICE     0.271     0  02:40                      1.00
  V2                   ORIFICE     0.140     0  04:21                      1.00
  V3                   ORIFICE     0.190     0  04:00                      1.00
  V4                   ORIFICE     0.080     0  03:35                      1.00
  V5                   ORIFICE     0.039     0  05:21                      1.00
  V6                   ORIFICE     0.172     0  05:10                      1.00
  
  
  ***************************
  Flow Classification Summary
  ***************************
  
  -------------------------------------------------------------------------------------
                      Adjusted    ---------- Fraction of Time in Flow Class ---------- 
                       /Actual         Up    Down  Sub   Sup   Up    Down  Norm  Inlet 
  Conduit               Length    Dry  Dry   Dry   Crit  Crit  Crit  Crit  Ltd   Ctrl  
  -------------------------------------------------------------------------------------
  C1                      1.00   0.00  0.00  0.00  0.67  0.33  0.00  0.00  0.96  0.00
  C10                     1.00   0.00  0.00  0.00  0.97  0.03  0.00  0.00  0.98  0.00
  C11                     1.00   0.00  0.00  0.00  0.27  0.73  0.00  0.00  1.00  0.00
  C12                     1.00   0.00  0.00  0.00  1.00  0.00  0.00  0.00  1.00  0.00
  C13                     1.00   0.00  0.00  0.00  0.93  0.07  0.00  0.00  0.22  0.00
  C14                     1.00   0.01  0.00  0.00  0.01  0.99  0.00  0.00  0.25  0.00
  C15                     1.00   0.01  0.00  0.00  0.00  0.99  0.00  0.00  0.00  0.00
  C16                     1.00   0.00  0.01  0.00  0.13  0.86  0.00  0.00  0.03  0.00
  C17                     1.00   0.00  0.00  0.00  0.63  0.37  0.00  0.00  0.93  0.00
  C18                     1.00   0.00  0.00  0.00  0.92  0.08  0.00  0.00  0.97  0.00
  C19                     1.00   0.00  0.00  0.00  0.93  0.06  0.00  0.00  1.00  0.00
  C2                      1.00   0.00  0.00  0.00  0.71  0.29  0.00  0.00  0.97  0.00
  C20                     1.00   0.00  0.00  0.00  0.33  0.67  0.00  0.00  0.98  0.00
  C21                     1.00   0.00  0.00  0.00  0.00  1.00  0.00  0.00  0.00  0.00
  C22                     1.00   0.00  0.00  0.00  0.87  0.13  0.00  0.00  1.00  0.00
  C23                     1.00   0.00  0.00  0.00  0.89  0.11  0.00  0.00  0.95  0.00
  C3                      1.00   0.00  0.00  0.00  0.03  0.96  0.00  0.00  0.15  0.00
  C4                      1.00   0.00  0.00  0.00  0.97  0.03  0.00  0.00  0.98  0.00
  C5                      1.00   0.00  0.00  0.00  0.86  0.14  0.00  0.00  0.90  0.00
  C6                      1.00   0.00  0.00  0.00  0.11  0.89  0.00  0.00  0.00  0.00
  C7                      1.00   0.00  0.00  0.00  0.92  0.08  0.00  0.00  0.97  0.00
  C8                      1.00   0.00  0.00  0.00  0.10  0.90  0.00  0.00  0.00  0.00
  C9                      1.00   0.00  0.00  0.00  1.00  0.00  0.00  0.00  1.00  0.00
  
  
  *************************
  Conduit Surcharge Summary
  *************************
  
  ----------------------------------------------------------------------------
                                                           Hours        Hours 
                         --------- Hours Full --------   Above Full   Capacity
  Conduit                Both Ends  Upstream  Dnstream   Normal Flow   Limited
  ----------------------------------------------------------------------------
  C10                         0.01      0.01      6.78      0.01         0.01
  C13                         0.01      0.01      7.31      0.01         0.01
  C15                         0.01      0.97      0.01      1.03         0.01
  C18                         0.01      0.01      6.89      0.01         0.01
  C21                         0.01      0.12      0.01      0.10         0.01
  C23                         0.01      0.01      7.66      0.01         0.01
  C4                          0.01      0.01      7.49      0.01         0.01
  C5                          0.44      0.47      0.56      0.50         0.40
  C6                          0.01      0.41      0.01      0.23         0.01
  C7                          0.01      0.01      7.80      0.01         0.01
  

  Analysis begun on:  Sun Jul 17 20:50:37 2022
  Analysis ended on:  Sun Jul 17 20:50:38 2022
  Total elapsed time: 00:00:01