
  EPA STORM WATER MANAGEMENT MODEL - VERSION 5.1 (Build 5.3.0.dev0)
  --------------------------------------------------------------

  
  *********************************************************
  NOTE: The summary statistics displayed in this report are
  based on results found at every computational time step,  
  not just on results from each reporting time step.
  *********************************************************
  
  ****************
  Analysis Options
  ****************
  Flow Units ............... CMS
  Process Models:
    Rainfall/Runoff ........ YES
    RDII ................... NO
    Snowmelt ............... NO
    Groundwater ............ NO
    Flow Routing ........... YES
    Ponding Allowed ........ NO
    Water Quality .......... NO
  Infiltration Method ...... HORTON
  Flow Routing Method ...... DYNWAVE
  Surcharge Method ......... EXTRAN
  Starting Date ............ 08/15/2007 13:50:00
  Ending Date .............. 08/15/2007 21:35:00
  Antecedent Dry Days ...... 0.0
  Report Time Step ......... 00:05:00
  Wet Time Step ............ 00:05:00
  Dry Time Step ............ 01:00:00
  Routing Time Step ........ 30.00 sec
  Variable Time Step ....... YES
  Maximum Trials ........... 8
  Number of Threads ........ 1
  Head Tolerance ........... 0.001500 m
  
  
  **************************        Volume         Depth
  Runoff Quantity Continuity     hectare-m            mm
  **************************     ---------       -------
  Total Precipitation ......         1.162         6.446
  Evaporation Loss .........         0.000         0.000
  Infiltration Loss ........         0.000         0.000
  Surface Runoff ...........         1.118         6.206
  Final Storage ............         0.045         0.251
  Continuity Error (%) .....        -0.162
  
  
  **************************        Volume        Volume
  Flow Routing Continuity        hectare-m      10^6 ltr
  **************************     ---------     ---------
  Dry Weather Inflow .......         0.278         2.780
  Wet Weather Inflow .......         1.118        11.177
  Groundwater Inflow .......         0.000         0.000
  RDII Inflow ..............         0.000         0.000
  External Inflow ..........         0.000         0.000
  External Outflow .........         0.471         4.709
  Flooding Loss ............         0.087         0.865
  Evaporation Loss .........         0.000         0.000
  Exfiltration Loss ........         0.000         0.000
  Initial Stored Volume ....         0.000         0.000
  Final Stored Volume ......         0.634         6.338
  Continuity Error (%) .....        14.656
  
  
  *************************
  Highest Continuity Errors
  *************************
  Node T2 (34.45%)
  Node T6 (28.89%)
  Node T5 (28.14%)
  Node T4 (23.58%)
  Node T3 (23.43%)
  
  
  ***************************
  Time-Step Critical Elements
  ***************************
  Link C15 (48.37%)
  
  
  ********************************
  Highest Flow Instability Indexes
  ********************************
  Link C19 (3)
  Link C23 (3)
  Link V2 (3)
  Link C11 (3)
  Link V3 (3)
  
  
  *************************
  Routing Time Step Summary
  *************************
  Minimum Time Step           :     0.30 sec
  Average Time Step           :    26.79 sec
  Maximum Time Step           :    30.00 sec
  Percent in Steady State     :     1.29
  Average Iterations per Step :     2.01
  Percent Not Converging      :     0.00
  
  
  ***************************
  Subcatchment Runoff Summary
  ***************************
  
  ------------------------------------------------------------------------------------------------------------------------------
                            Total      Total      Total      Total     Imperv       Perv      Total       Total     Peak  Runoff
                           Precip      Runon       Evap      Infil     Runoff     Runoff     Runoff      Runoff   Runoff   Coeff
  Subcatchment                 mm         mm         mm         mm         mm         mm         mm    10^6 ltr      CMS
  ------------------------------------------------------------------------------------------------------------------------------
  SC01                       6.83       0.00       0.00       0.00       6.69       0.00       6.69        2.21     0.31   0.980
  SC010                      6.83       0.00       0.00       0.00       6.62       0.00       6.62        0.78     0.10   0.970
  SC02                       7.67       0.00       0.00       0.00       7.51       0.00       7.51        1.71     0.24   0.980
  SC03                       5.53       0.00       0.00       0.00       5.44       0.00       5.44        0.98     0.15   0.983
  SC04                       7.67       0.00       0.00       0.00       7.27       0.00       7.27        0.50     0.06   0.947
  SC05                       6.83       0.00       0.00       0.00       6.67       0.00       6.67        1.04     0.15   0.977
  SC06                       5.86       0.00       0.00       0.00       5.36       0.00       5.36        1.74     0.23   0.915
  SC07                       7.67       0.00       0.00       0.00       7.27       0.00       7.27        0.35     0.04   0.948
  SC08                       5.53       0.00       0.00       0.00       5.32       0.00       5.32        1.49     0.20   0.963
  SC09                       5.86       0.00       0.00       0.00       5.58       0.00       5.58        0.38     0.05   0.952
  
  
  ******************
  Node Depth Summary
  ******************
  
  ---------------------------------------------------------------------------------
                                 Average  Maximum  Maximum  Time of Max    Reported
                                   Depth    Depth      HGL   Occurrence   Max Depth
  Node                 Type       Meters   Meters   Meters  days hr:min      Meters
  ---------------------------------------------------------------------------------
  CSO10                JUNCTION     0.13     0.27    30.27     0  04:30        0.27
  CSO7                 JUNCTION     0.10     0.19    34.19     0  05:35        0.19
  CSO8                 JUNCTION     0.13     0.27    32.27     0  04:25        0.27
  CSO9                 JUNCTION     0.11     0.21    40.21     0  05:36        0.21
  J1                   JUNCTION     0.08     0.13    34.13     0  04:26        0.13
  J10                  JUNCTION     0.10     0.18    29.18     0  04:25        0.18
  J11                  JUNCTION     0.10     0.19    31.19     0  04:26        0.19
  J12                  JUNCTION     0.13     0.22    26.22     0  04:28        0.22
  J13                  JUNCTION     0.07     0.14    29.14     0  05:35        0.14
  J14                  JUNCTION     0.10     0.15    20.15     0  05:07        0.15
  J15                  JUNCTION     0.16     0.26    15.26     0  04:40        0.26
  J16                  JUNCTION     0.08     0.14    30.14     0  04:26        0.14
  J17                  JUNCTION     0.06     0.13    20.13     0  05:40        0.13
  J18                  JUNCTION     0.06     0.12    29.12     0  04:31        0.12
  J19                  JUNCTION     0.13     0.17     8.17     0  04:53        0.17
  J2                   JUNCTION     0.06     0.08    25.08     0  06:14        0.08
  J3                   JUNCTION     0.10     0.14    18.14     0  05:20        0.14
  J4                   JUNCTION     0.13     0.22    33.22     0  05:37        0.22
  J5                   JUNCTION     0.07     0.12    32.12     0  05:36        0.12
  J6                   JUNCTION     0.06     0.11    25.11     0  05:55        0.11
  J7                   JUNCTION     0.08     0.15    39.15     0  05:39        0.15
  J8                   JUNCTION     0.11     0.18    36.18     0  05:39        0.18
  J9                   JUNCTION     0.09     0.16    29.16     0  06:12        0.16
  Out_to_WWTP          OUTFALL      0.13     0.17     6.17     0  06:11        0.17
  T1                   STORAGE      2.64     5.00    15.00     0  04:51        5.00
  T2                   STORAGE      1.57     3.60    24.60     0  07:36        3.60
  T3                   STORAGE      1.54     3.57    25.57     0  07:21        3.57
  T4                   STORAGE      1.67     3.71    30.71     0  06:54        3.71
  T5                   STORAGE      2.14     4.54    31.54     0  06:12        4.54
  T6                   STORAGE      1.81     4.84    35.84     0  07:44        4.83
  
  
  *******************
  Node Inflow Summary
  *******************
  
  -------------------------------------------------------------------------------------------------
                                  Maximum  Maximum                  Lateral       Total        Flow
                                  Lateral    Total  Time of Max      Inflow      Inflow     Balance
                                   Inflow   Inflow   Occurrence      Volume      Volume       Error
  Node                 Type           CMS      CMS  days hr:min    10^6 ltr    10^6 ltr     Percent
  -------------------------------------------------------------------------------------------------
  CSO10                JUNCTION     0.108    0.108     0  04:30       0.878       0.878       0.053
  CSO7                 JUNCTION     0.053    0.053     0  05:35       0.553       0.553       0.081
  CSO8                 JUNCTION     0.196    0.196     0  04:25        1.65        1.65       0.016
  CSO9                 JUNCTION     0.057    0.057     0  05:35       0.525       0.526       0.088
  J1                   JUNCTION     0.160    0.160     0  04:25        1.44        1.44       0.020
  J10                  JUNCTION     0.162    0.348     0  04:25        1.25         2.9       0.095
  J11                  JUNCTION     0.000    0.196     0  04:25           0        1.65       0.199
  J12                  JUNCTION     0.000    0.426     0  04:26           0        4.39       0.204
  J13                  JUNCTION     0.249    0.249     0  05:35        2.04        2.04      -0.147
  J14                  JUNCTION     0.000    0.126     0  05:20           0         1.5       0.255
  J15                  JUNCTION     0.000    0.596     0  04:40           0         6.7       0.886
  J16                  JUNCTION     0.328    0.328     0  04:25         2.6         2.6       0.010
  J17                  JUNCTION     0.000    0.107     0  05:40           0       0.622       0.392
  J18                  JUNCTION     0.000    0.107     0  04:30           0       0.878       0.137
  J19                  JUNCTION     0.000    0.271     0  04:52           0        4.72       0.234
  J2                   JUNCTION     0.000    0.037     0  06:12           0       0.628       0.839
  J3                   JUNCTION     0.000    0.217     0  05:20           0        2.63       1.022
  J4                   JUNCTION     0.000    0.052     0  05:35           0       0.553       0.546
  J5                   JUNCTION     0.068    0.119     0  05:35       0.592        1.14       0.127
  J6                   JUNCTION     0.000    0.065     0  05:55           0       0.513       0.672
  J7                   JUNCTION     0.000    0.057     0  05:36           0       0.525       0.537
  J8                   JUNCTION     0.252    0.307     0  05:37        2.42        2.94       0.186
  J9                   JUNCTION     0.000    0.164     0  06:39           0        1.51       0.572
  Out_to_WWTP          OUTFALL      0.000    0.271     0  04:53           0        4.71       0.000
  T1                   STORAGE      0.000    0.582     0  04:41           0        6.65       9.329
  T2                   STORAGE      0.000    0.247     0  05:35           0        2.05      52.556
  T3                   STORAGE      0.000    0.420     0  04:28           0        4.38      30.593
  T4                   STORAGE      0.000    0.118     0  05:36           0        1.14      30.851
  T5                   STORAGE      0.000    0.159     0  04:26           0        1.44      39.167
  T6                   STORAGE      0.000    0.307     0  05:39           0        2.94      40.631
  
  
  **********************
  Node Surcharge Summary
  **********************
  
  No nodes were surcharged.
  
  
  *********************
  Node Flooding Summary
  *********************
  
  Flooding refers to all water that overflows a node, whether it ponds or not.
  --------------------------------------------------------------------------
                                                             Total   Maximum
                                 Maximum   Time of Max       Flood    Ponded
                        Hours       Rate    Occurrence      Volume     Depth
  Node                 Flooded       CMS   days hr:min    10^6 ltr    Meters
  --------------------------------------------------------------------------
  T1                      1.22     0.296      0  05:40       0.865     0.000
  
  
  **********************
  Storage Volume Summary
  **********************
  
  --------------------------------------------------------------------------------------------------
                         Average     Avg  Evap Exfil       Maximum     Max    Time of Max    Maximum
                          Volume    Pcnt  Pcnt  Pcnt        Volume    Pcnt     Occurrence    Outflow
  Storage Unit           1000 m3    Full  Loss  Loss       1000 m3    Full    days hr:min        CMS
  --------------------------------------------------------------------------------------------------
  T1                       0.370      53     0     0         0.700     100       0  04:51      0.271
  T2                       0.313      31     0     0         0.721      72       0  07:36      0.107
  T3                       0.802      31     0     0         1.856      71       0  07:21      0.126
  T4                       0.167      33     0     0         0.371      74       0  06:54      0.065
  T5                       0.214      43     0     0         0.454      91       0  06:12      0.037
  T6                       0.217      36     0     0         0.581      97       0  07:44      0.164
  
  
  ***********************
  Outfall Loading Summary
  ***********************
  
  -----------------------------------------------------------
                         Flow       Avg       Max       Total
                         Freq      Flow      Flow      Volume
  Outfall Node           Pcnt       CMS       CMS    10^6 ltr
  -----------------------------------------------------------
  Out_to_WWTP           99.13     0.176     0.271       4.709
  -----------------------------------------------------------
  System                99.13     0.176     0.271       4.709
  
  
  ********************
  Link Flow Summary
  ********************
  
  -----------------------------------------------------------------------------
                                 Maximum  Time of Max   Maximum    Max/    Max/
                                  |Flow|   Occurrence   |Veloc|    Full    Full
  Link                 Type          CMS  days hr:min     m/sec    Flow   Depth
  -----------------------------------------------------------------------------
  C1                   CONDUIT     0.037     0  06:15      1.05    0.01    0.11
  C10                  CONDUIT     0.307     0  05:39      1.81    0.03    0.56
  C11                  CONDUIT     0.208     0  05:20      1.46    0.01    0.10
  C12                  CONDUIT     0.158     0  06:13      1.34    0.01    0.09
  C13                  CONDUIT     0.420     0  04:28      1.58    0.02    0.55
  C14                  CONDUIT     0.271     0  04:53      2.08    0.02    0.09
  C15                  CONDUIT     0.196     0  04:25      2.40    0.62    0.51
  C16                  CONDUIT     0.193     0  04:26      1.31    0.02    0.09
  C17                  CONDUIT     0.346     0  04:26      2.15    0.02    0.10
  C18                  CONDUIT     0.247     0  05:35      3.17    0.01    0.53
  C19                  CONDUIT     0.106     0  05:40      1.01    0.04    0.19
  C2                   CONDUIT     0.065     0  05:55      1.72    0.07    0.21
  C20                  CONDUIT     0.327     0  04:26      3.22    0.01    0.10
  C21                  CONDUIT     0.107     0  04:30      1.64    0.62    0.45
  C22                  CONDUIT     0.107     0  04:31      1.22    0.05    0.23
  C23                  CONDUIT     0.582     0  04:41      1.33    0.06    0.59
  C3                   CONDUIT     0.126     0  05:20      1.92    0.05    0.15
  C4                   CONDUIT     0.159     0  04:26      3.10    0.04    0.57
  C5                   CONDUIT     0.052     0  05:35      1.34    0.90    0.80
  C6                   CONDUIT     0.051     0  05:37      1.24    0.81    0.57
  C7                   CONDUIT     0.118     0  05:36      1.57    0.03    0.56
  C8                   CONDUIT     0.057     0  05:36      1.25    0.72    0.56
  C9                   CONDUIT     0.056     0  05:39      0.99    0.19    0.33
  V1                   ORIFICE     0.271     0  04:52                      1.00
  V2                   ORIFICE     0.107     0  05:40                      1.00
  V3                   ORIFICE     0.126     0  05:20                      1.00
  V4                   ORIFICE     0.065     0  05:55                      1.00
  V5                   ORIFICE     0.037     0  06:12                      1.00
  V6                   ORIFICE     0.164     0  06:39                      1.00
  
  
  ***************************
  Flow Classification Summary
  ***************************
  
  -------------------------------------------------------------------------------------
                      Adjusted    ---------- Fraction of Time in Flow Class ---------- 
                       /Actual         Up    Down  Sub   Sup   Up    Down  Norm  Inlet 
  Conduit               Length    Dry  Dry   Dry   Crit  Crit  Crit  Crit  Ltd   Ctrl  
  -------------------------------------------------------------------------------------
  C1                      1.00   0.00  0.00  0.00  0.54  0.46  0.00  0.00  0.96  0.00
  C10                     1.00   0.00  0.00  0.00  0.96  0.04  0.00  0.00  0.98  0.00
  C11                     1.00   0.00  0.00  0.00  0.30  0.70  0.00  0.00  1.00  0.00
  C12                     1.00   0.00  0.00  0.00  0.75  0.25  0.00  0.00  1.00  0.00
  C13                     1.00   0.00  0.00  0.00  0.88  0.12  0.00  0.00  0.91  0.00
  C14                     1.00   0.01  0.00  0.00  0.01  0.98  0.00  0.00  0.42  0.00
  C15                     1.00   0.00  0.00  0.00  0.00  1.00  0.00  0.00  0.00  0.00
  C16                     1.00   0.00  0.00  0.00  0.29  0.70  0.00  0.00  0.24  0.00
  C17                     1.00   0.00  0.00  0.00  0.06  0.94  0.00  0.00  0.97  0.00
  C18                     1.00   0.00  0.00  0.00  0.95  0.05  0.00  0.00  0.98  0.00
  C19                     1.00   0.00  0.00  0.00  0.90  0.09  0.00  0.00  1.00  0.00
  C2                      1.00   0.00  0.00  0.00  0.48  0.52  0.00  0.00  0.97  0.00
  C20                     1.00   0.00  0.00  0.00  0.32  0.68  0.00  0.00  0.98  0.00
  C21                     1.00   0.00  0.00  0.00  0.00  1.00  0.00  0.00  0.00  0.00
  C22                     1.00   0.00  0.00  0.00  0.91  0.09  0.00  0.00  1.00  0.00
  C23                     1.00   0.00  0.00  0.00  0.90  0.10  0.00  0.00  0.95  0.00
  C3                      1.00   0.00  0.00  0.00  0.04  0.95  0.00  0.00  0.44  0.00
  C4                      1.00   0.00  0.00  0.00  0.97  0.03  0.00  0.00  0.98  0.00
  C5                      1.00   0.00  0.00  0.00  0.87  0.13  0.00  0.00  0.98  0.00
  C6                      1.00   0.00  0.00  0.00  0.01  0.99  0.00  0.00  0.00  0.00
  C7                      1.00   0.00  0.00  0.00  0.95  0.05  0.00  0.00  0.97  0.00
  C8                      1.00   0.00  0.00  0.00  0.00  1.00  0.00  0.00  0.00  0.00
  C9                      1.00   0.00  0.00  0.00  1.00  0.00  0.00  0.00  1.00  0.00
  
  
  *************************
  Conduit Surcharge Summary
  *************************
  
  ----------------------------------------------------------------------------
                                                           Hours        Hours 
                         --------- Hours Full --------   Above Full   Capacity
  Conduit                Both Ends  Upstream  Dnstream   Normal Flow   Limited
  ----------------------------------------------------------------------------
  C10                         0.01      0.01      3.06      0.01         0.01
  C13                         0.01      0.01      2.74      0.01         0.01
  C18                         0.01      0.01      2.74      0.01         0.01
  C23                         0.01      0.01      4.72      0.01         0.01
  C4                          0.01      0.01      4.56      0.01         0.01
  C7                          0.01      0.01      4.01      0.01         0.01
  

  Analysis begun on:  Sun Jul 17 20:06:51 2022
  Analysis ended on:  Sun Jul 17 20:06:52 2022
  Total elapsed time: 00:00:01