
  EPA STORM WATER MANAGEMENT MODEL - VERSION 5.1 (Build 5.3.0.dev0)
  --------------------------------------------------------------

  
  *********************************************************
  NOTE: The summary statistics displayed in this report are
  based on results found at every computational time step,  
  not just on results from each reporting time step.
  *********************************************************
  
  ****************
  Analysis Options
  ****************
  Flow Units ............... CMS
  Process Models:
    Rainfall/Runoff ........ YES
    RDII ................... NO
    Snowmelt ............... NO
    Groundwater ............ NO
    Flow Routing ........... YES
    Ponding Allowed ........ NO
    Water Quality .......... NO
  Infiltration Method ...... HORTON
  Flow Routing Method ...... DYNWAVE
  Surcharge Method ......... EXTRAN
  Starting Date ............ 09/22/2008 07:15:00
  Ending Date .............. 09/22/2008 23:15:00
  Antecedent Dry Days ...... 0.0
  Report Time Step ......... 00:05:00
  Wet Time Step ............ 00:05:00
  Dry Time Step ............ 01:00:00
  Routing Time Step ........ 30.00 sec
  Variable Time Step ....... YES
  Maximum Trials ........... 8
  Number of Threads ........ 1
  Head Tolerance ........... 0.001500 m
  
  
  **************************        Volume         Depth
  Runoff Quantity Continuity     hectare-m            mm
  **************************     ---------       -------
  Total Precipitation ......         1.970        10.933
  Evaporation Loss .........         0.000         0.000
  Infiltration Loss ........         0.000         0.000
  Surface Runoff ...........         1.968        10.922
  Final Storage ............         0.019         0.107
  Continuity Error (%) .....        -0.879
  
  
  **************************        Volume        Volume
  Flow Routing Continuity        hectare-m      10^6 ltr
  **************************     ---------     ---------
  Dry Weather Inflow .......         0.637         6.367
  Wet Weather Inflow .......         1.968        19.677
  Groundwater Inflow .......         0.000         0.000
  RDII Inflow ..............         0.000         0.000
  External Inflow ..........         0.000         0.000
  External Outflow .........         1.316        13.163
  Flooding Loss ............         0.517         5.172
  Evaporation Loss .........         0.000         0.000
  Exfiltration Loss ........         0.000         0.000
  Initial Stored Volume ....         0.000         0.000
  Final Stored Volume ......         0.620         6.200
  Continuity Error (%) .....         5.793
  
  
  *************************
  Highest Continuity Errors
  *************************
  Node T2 (21.27%)
  Node T4 (16.47%)
  Node T3 (11.75%)
  Node T5 (7.93%)
  Node T6 (5.34%)
  
  
  ***************************
  Time-Step Critical Elements
  ***************************
  Link C15 (25.63%)
  Link C21 (1.60%)
  
  
  ********************************
  Highest Flow Instability Indexes
  ********************************
  Link C13 (12)
  Link C3 (6)
  Link C23 (5)
  Link C11 (4)
  Link V3 (4)
  
  
  *************************
  Routing Time Step Summary
  *************************
  Minimum Time Step           :     0.54 sec
  Average Time Step           :    27.01 sec
  Maximum Time Step           :    30.00 sec
  Percent in Steady State     :     4.68
  Average Iterations per Step :     2.43
  Percent Not Converging      :     1.82
  
  
  ***************************
  Subcatchment Runoff Summary
  ***************************
  
  ------------------------------------------------------------------------------------------------------------------------------
                            Total      Total      Total      Total     Imperv       Perv      Total       Total     Peak  Runoff
                           Precip      Runon       Evap      Infil     Runoff     Runoff     Runoff      Runoff   Runoff   Coeff
  Subcatchment                 mm         mm         mm         mm         mm         mm         mm    10^6 ltr      CMS
  ------------------------------------------------------------------------------------------------------------------------------
  SC01                       7.50       0.00       0.00       0.00       7.45       0.00       7.45        2.46     0.60   0.994
  SC010                      7.50       0.00       0.00       0.00       7.43       0.00       7.43        0.87     0.20   0.991
  SC02                       9.55       0.00       0.00       0.00       9.49       0.00       9.49        2.16     0.64   0.993
  SC03                      15.41       0.00       0.00       0.00      15.70       0.00      15.70        2.83     2.30   1.019
  SC04                       9.55       0.00       0.00       0.00       9.43       0.00       9.43        0.65     0.16   0.987
  SC05                       7.50       0.00       0.00       0.00       7.45       0.00       7.45        1.16     0.28   0.993
  SC06                      12.17       0.00       0.00       0.00      12.06       0.00      12.06        3.93     1.11   0.991
  SC07                       9.55       0.00       0.00       0.00       9.43       0.00       9.43        0.45     0.11   0.987
  SC08                      15.41       0.00       0.00       0.00      15.51       0.00      15.51        4.34     2.82   1.006
  SC09                      12.17       0.00       0.00       0.00      12.12       0.00      12.12        0.84     0.27   0.996
  
  
  ******************
  Node Depth Summary
  ******************
  
  ---------------------------------------------------------------------------------
                                 Average  Maximum  Maximum  Time of Max    Reported
                                   Depth    Depth      HGL   Occurrence   Max Depth
  Node                 Type       Meters   Meters   Meters  days hr:min      Meters
  ---------------------------------------------------------------------------------
  CSO10                JUNCTION     0.12     1.00    31.00     0  02:04        1.00
  CSO7                 JUNCTION     0.19     1.20    35.20     0  01:37        1.20
  CSO8                 JUNCTION     0.28     2.00    34.00     0  01:36        2.00
  CSO9                 JUNCTION     0.27     2.00    42.00     0  01:42        2.00
  J1                   JUNCTION     0.07     0.18    34.18     0  02:05        0.18
  J10                  JUNCTION     0.10     0.50    29.50     0  01:45        0.50
  J11                  JUNCTION     0.10     0.30    31.30     0  02:05        0.30
  J12                  JUNCTION     0.71     1.01    27.01     0  07:34        1.01
  J13                  JUNCTION     0.06     0.21    29.21     0  01:46        0.21
  J14                  JUNCTION     0.14     0.19    20.19     0  12:07        0.19
  J15                  JUNCTION     0.18     0.33    15.33     0  02:07        0.33
  J16                  JUNCTION     0.06     0.19    30.19     0  02:05        0.19
  J17                  JUNCTION     0.07     0.15    20.15     0  10:31        0.15
  J18                  JUNCTION     0.05     0.16    29.16     0  02:06        0.16
  J19                  JUNCTION     0.15     0.17     8.17     0  02:07        0.17
  J2                   JUNCTION     0.07     0.08    25.08     0  03:07        0.08
  J3                   JUNCTION     0.12     0.17    18.17     0  10:35        0.17
  J4                   JUNCTION     0.16     1.06    34.06     0  01:37        0.74
  J5                   JUNCTION     0.06     0.16    32.16     0  01:50        0.16
  J6                   JUNCTION     0.06     0.12    25.12     0  04:06        0.12
  J7                   JUNCTION     0.08     0.23    39.23     0  02:25        0.23
  J8                   JUNCTION     0.11     0.37    36.37     0  02:10        0.37
  J9                   JUNCTION     0.10     0.16    29.16     0  03:20        0.16
  Out_to_WWTP          OUTFALL      0.15     0.17     6.17     0  02:54        0.17
  T1                   STORAGE      3.86     5.00    15.00     0  02:06        5.00
  T2                   STORAGE      3.86     4.92    25.92     0  07:50        4.92
  T3                   STORAGE      4.13     5.00    27.00     0  07:23        5.00
  T4                   STORAGE      3.96     5.00    32.00     0  03:29        5.00
  T5                   STORAGE      3.17     4.51    31.51     0  03:05        4.51
  T6                   STORAGE      3.51     5.00    36.00     0  02:06        5.00
  
  
  *******************
  Node Inflow Summary
  *******************
  
  -------------------------------------------------------------------------------------------------
                                  Maximum  Maximum                  Lateral       Total        Flow
                                  Lateral    Total  Time of Max      Inflow      Inflow     Balance
                                   Inflow   Inflow   Occurrence      Volume      Volume       Error
  Node                 Type           CMS      CMS  days hr:min    10^6 ltr    10^6 ltr     Percent
  -------------------------------------------------------------------------------------------------
  CSO10                JUNCTION     0.207    0.207     0  02:05         1.1         1.1      -0.078
  CSO7                 JUNCTION     0.120    0.120     0  01:50        0.92        0.92       0.012
  CSO8                 JUNCTION     2.835    2.835     0  01:45        4.74        4.75      -0.088
  CSO9                 JUNCTION     0.274    0.274     0  02:05        1.16        1.16       0.011
  J1                   JUNCTION     0.299    0.299     0  02:05        2.08        2.08      -0.143
  J10                  JUNCTION     2.313    2.793     0  01:45        3.45        6.53      -0.261
  J11                  JUNCTION     0.000    0.487     0  02:05           0        3.07      -0.139
  J12                  JUNCTION     0.000    2.787     0  01:45           0        10.4       2.178
  J13                  JUNCTION     0.656    0.656     0  01:45        2.91        2.91      -0.426
  J14                  JUNCTION     0.000    0.190     0  10:57           0        6.48       1.022
  J15                  JUNCTION     0.000    1.016     0  02:05           0        15.3       0.104
  J16                  JUNCTION     0.621    0.621     0  02:05        3.36        3.36      -0.180
  J17                  JUNCTION     0.000    0.135     0  10:25           0        1.71       0.156
  J18                  JUNCTION     0.000    0.202     0  02:05           0         1.1      -0.222
  J19                  JUNCTION     0.000    0.271     0  02:06           0        13.2       0.090
  J2                   JUNCTION     0.000    0.037     0  03:05           0        1.74       0.208
  J3                   JUNCTION     0.000    0.298     0  10:29           0        9.16       0.451
  J4                   JUNCTION     0.000    0.081     0  01:37           0       0.856      -0.022
  J5                   JUNCTION     0.164    0.236     0  01:50       0.857        1.71      -0.138
  J6                   JUNCTION     0.000    0.080     0  04:00           0        1.01      -0.156
  J7                   JUNCTION     0.000    0.127     0  02:25           0       0.909       0.056
  J8                   JUNCTION     1.137    1.265     0  02:10        5.46        6.38      -0.131
  J9                   JUNCTION     0.000    0.175     0  02:10           0        3.63      -1.127
  Out_to_WWTP          OUTFALL      0.000    0.271     0  02:08           0        13.2       0.000
  T1                   STORAGE      0.000    0.957     0  02:08           0        15.3       4.686
  T2                   STORAGE      0.000    0.654     0  01:46           0        2.93      27.008
  T3                   STORAGE      0.000    2.697     0  01:46           0        10.2      13.315
  T4                   STORAGE      0.000    0.235     0  01:50           0        1.72      19.716
  T5                   STORAGE      0.000    0.294     0  02:05           0        2.08       8.615
  T6                   STORAGE      0.000    1.264     0  02:10           0        6.39       5.640
  
  
  **********************
  Node Surcharge Summary
  **********************
  
  Surcharging occurs when water rises above the top of the highest conduit.
  ---------------------------------------------------------------------
                                               Max. Height   Min. Depth
                                   Hours       Above Crown    Below Rim
  Node                 Type      Surcharged         Meters       Meters
  ---------------------------------------------------------------------
  CSO10                JUNCTION        0.30          0.560        0.000
  CSO7                 JUNCTION        0.85          0.945        0.000
  CSO8                 JUNCTION        0.88          1.547        0.000
  CSO9                 JUNCTION        0.95          1.682        0.000
  J4                   JUNCTION        0.82          0.759        0.941
  
  
  *********************
  Node Flooding Summary
  *********************
  
  Flooding refers to all water that overflows a node, whether it ponds or not.
  --------------------------------------------------------------------------
                                                             Total   Maximum
                                 Maximum   Time of Max       Flood    Ponded
                        Hours       Rate    Occurrence      Volume     Depth
  Node                 Flooded       CMS   days hr:min    10^6 ltr    Meters
  --------------------------------------------------------------------------
  CSO10                   0.02     0.005      0  02:05       0.000     0.000
  CSO7                    0.68     0.048      0  01:50       0.064     0.000
  CSO8                    0.66     2.333      0  01:45       1.686     0.000
  CSO9                    0.72     0.147      0  01:50       0.249     0.000
  T1                      0.67     0.686      0  02:08       0.812     0.000
  T3                      0.57     0.157      0  07:38       0.138     0.000
  T4                      1.73     0.024      0  03:51       0.061     0.000
  T6                      3.06     1.234      0  02:10       2.157     0.000
  
  
  **********************
  Storage Volume Summary
  **********************
  
  --------------------------------------------------------------------------------------------------
                         Average     Avg  Evap Exfil       Maximum     Max    Time of Max    Maximum
                          Volume    Pcnt  Pcnt  Pcnt        Volume    Pcnt     Occurrence    Outflow
  Storage Unit           1000 m3    Full  Loss  Loss       1000 m3    Full    days hr:min        CMS
  --------------------------------------------------------------------------------------------------
  T1                       0.540      77     0     0         0.700     100       0  02:06      0.271
  T2                       0.772      77     0     0         0.985      98       0  07:50      0.135
  T3                       2.148      83     0     0         2.600     100       0  07:23      0.262
  T4                       0.396      79     0     0         0.500     100       0  03:29      0.080
  T5                       0.317      63     0     0         0.451      90       0  03:05      0.037
  T6                       0.421      70     0     0         0.600     100       0  02:06      0.175
  
  
  ***********************
  Outfall Loading Summary
  ***********************
  
  -----------------------------------------------------------
                         Flow       Avg       Max       Total
                         Freq      Flow      Flow      Volume
  Outfall Node           Pcnt       CMS       CMS    10^6 ltr
  -----------------------------------------------------------
  Out_to_WWTP           99.48     0.230     0.271      13.163
  -----------------------------------------------------------
  System                99.48     0.230     0.271      13.163
  
  
  ********************
  Link Flow Summary
  ********************
  
  -----------------------------------------------------------------------------
                                 Maximum  Time of Max   Maximum    Max/    Max/
                                  |Flow|   Occurrence   |Veloc|    Full    Full
  Link                 Type          CMS  days hr:min     m/sec    Flow   Depth
  -----------------------------------------------------------------------------
  C1                   CONDUIT     0.037     0  03:07      1.05    0.01    0.12
  C10                  CONDUIT     1.264     0  02:10      1.66    0.13    0.62
  C11                  CONDUIT     0.296     0  10:35      1.98    0.01    0.12
  C12                  CONDUIT     0.175     0  03:20      0.89    0.01    0.29
  C13                  CONDUIT     2.697     0  01:46      3.16    0.16    0.75
  C14                  CONDUIT     0.271     0  02:08      2.08    0.02    0.09
  C15                  CONDUIT     0.487     0  02:05      3.79    1.55    0.83
  C16                  CONDUIT     0.489     0  02:10      1.80    0.05    0.20
  C17                  CONDUIT     2.744     0  01:45      4.52    0.14    0.28
  C18                  CONDUIT     0.654     0  01:46      3.36    0.02    0.55
  C19                  CONDUIT     0.133     0  10:31      1.57    0.05    0.22
  C2                   CONDUIT     0.079     0  04:06      1.76    0.09    0.24
  C20                  CONDUIT     0.609     0  02:05      2.93    0.02    0.13
  C21                  CONDUIT     0.202     0  02:05      1.83    1.16    0.68
  C22                  CONDUIT     0.197     0  02:06      1.55    0.09    0.31
  C23                  CONDUIT     0.957     0  02:08      1.30    0.11    0.61
  C3                   CONDUIT     0.191     0  10:57      2.27    0.07    0.18
  C4                   CONDUIT     0.294     0  02:05      3.06    0.07    0.59
  C5                   CONDUIT     0.081     0  01:37      1.57    1.38    1.00
  C6                   CONDUIT     0.072     0  01:50      1.29    1.14    0.77
  C7                   CONDUIT     0.235     0  01:50      1.44    0.06    0.58
  C8                   CONDUIT     0.127     0  02:25      1.88    1.60    0.86
  C9                   CONDUIT     0.127     0  02:26      1.23    0.43    0.60
  V1                   ORIFICE     0.271     0  02:06                      1.00
  V2                   ORIFICE     0.135     0  10:25                      1.00
  V3                   ORIFICE     0.190     0  10:57                      1.00
  V4                   ORIFICE     0.080     0  04:00                      1.00
  V5                   ORIFICE     0.037     0  03:05                      1.00
  V6                   ORIFICE     0.175     0  02:10                      1.00
  
  
  ***************************
  Flow Classification Summary
  ***************************
  
  -------------------------------------------------------------------------------------
                      Adjusted    ---------- Fraction of Time in Flow Class ---------- 
                       /Actual         Up    Down  Sub   Sup   Up    Down  Norm  Inlet 
  Conduit               Length    Dry  Dry   Dry   Crit  Crit  Crit  Crit  Ltd   Ctrl  
  -------------------------------------------------------------------------------------
  C1                      1.00   0.00  0.00  0.00  0.54  0.46  0.00  0.00  0.97  0.00
  C10                     1.00   0.00  0.00  0.00  0.98  0.02  0.00  0.00  0.99  0.00
  C11                     1.00   0.00  0.00  0.00  0.19  0.81  0.00  0.00  1.00  0.00
  C12                     1.00   0.00  0.00  0.00  0.98  0.02  0.00  0.00  1.00  0.00
  C13                     1.00   0.00  0.00  0.00  0.91  0.09  0.00  0.00  0.10  0.00
  C14                     1.00   0.00  0.00  0.00  0.00  0.99  0.00  0.00  0.27  0.00
  C15                     1.00   0.00  0.00  0.00  0.00  1.00  0.00  0.00  0.00  0.00
  C16                     1.00   0.00  0.00  0.00  0.54  0.46  0.00  0.00  0.54  0.00
  C17                     1.00   0.00  0.00  0.00  0.79  0.21  0.00  0.00  0.98  0.00
  C18                     1.00   0.00  0.00  0.00  0.94  0.06  0.00  0.00  0.99  0.00
  C19                     1.00   0.00  0.00  0.00  0.93  0.07  0.00  0.00  1.00  0.00
  C2                      1.00   0.00  0.00  0.00  0.80  0.20  0.00  0.00  1.00  0.00
  C20                     1.00   0.00  0.00  0.00  0.75  0.25  0.00  0.00  0.99  0.00
  C21                     1.00   0.00  0.00  0.00  0.02  0.98  0.00  0.00  0.00  0.00
  C22                     1.00   0.00  0.00  0.00  0.87  0.13  0.00  0.00  1.00  0.00
  C23                     1.00   0.00  0.00  0.00  0.95  0.05  0.00  0.00  0.97  0.00
  C3                      1.00   0.00  0.00  0.00  0.02  0.98  0.00  0.00  0.25  0.00
  C4                      1.00   0.00  0.00  0.00  0.98  0.02  0.00  0.00  0.99  0.00
  C5                      1.00   0.00  0.00  0.00  0.96  0.04  0.00  0.00  0.93  0.00
  C6                      1.00   0.00  0.00  0.00  0.12  0.88  0.00  0.00  0.00  0.00
  C7                      1.00   0.00  0.00  0.00  0.98  0.02  0.00  0.00  0.98  0.00
  C8                      1.00   0.00  0.00  0.00  0.19  0.81  0.00  0.00  0.01  0.00
  C9                      1.00   0.00  0.00  0.00  1.00  0.00  0.00  0.00  1.00  0.00
  
  
  *************************
  Conduit Surcharge Summary
  *************************
  
  ----------------------------------------------------------------------------
                                                           Hours        Hours 
                         --------- Hours Full --------   Above Full   Capacity
  Conduit                Both Ends  Upstream  Dnstream   Normal Flow   Limited
  ----------------------------------------------------------------------------
  C10                         0.01      0.01     14.14      0.01         0.01
  C13                         0.01      0.01     14.15      0.01         0.01
  C15                         0.01      0.88      0.01      0.89         0.01
  C18                         0.01      0.01     14.20      0.01         0.01
  C21                         0.01      0.30      0.01      0.24         0.01
  C23                         0.01      0.01     14.49      0.01         0.01
  C4                          0.01      0.01     14.61      0.01         0.01
  C5                          0.82      0.85      0.92      0.88         0.79
  C6                          0.01      0.82      0.01      0.73         0.01
  C7                          0.01      0.01     14.36      0.01         0.01
  C8                          0.01      0.95      0.01      0.95         0.01
  

  Analysis begun on:  Sun Jul 17 21:00:56 2022
  Analysis ended on:  Sun Jul 17 21:00:57 2022
  Total elapsed time: 00:00:01