
  EPA STORM WATER MANAGEMENT MODEL - VERSION 5.1 (Build 5.3.0.dev0)
  --------------------------------------------------------------

  
  *********************************************************
  NOTE: The summary statistics displayed in this report are
  based on results found at every computational time step,  
  not just on results from each reporting time step.
  *********************************************************
  
  ****************
  Analysis Options
  ****************
  Flow Units ............... CMS
  Process Models:
    Rainfall/Runoff ........ YES
    RDII ................... NO
    Snowmelt ............... NO
    Groundwater ............ NO
    Flow Routing ........... YES
    Ponding Allowed ........ NO
    Water Quality .......... NO
  Infiltration Method ...... HORTON
  Flow Routing Method ...... DYNWAVE
  Surcharge Method ......... EXTRAN
  Starting Date ............ 03/28/2009 08:20:00
  Ending Date .............. 03/28/2009 18:55:00
  Antecedent Dry Days ...... 0.0
  Report Time Step ......... 00:05:00
  Wet Time Step ............ 00:05:00
  Dry Time Step ............ 01:00:00
  Routing Time Step ........ 30.00 sec
  Variable Time Step ....... YES
  Maximum Trials ........... 8
  Number of Threads ........ 1
  Head Tolerance ........... 0.001500 m
  
  
  **************************        Volume         Depth
  Runoff Quantity Continuity     hectare-m            mm
  **************************     ---------       -------
  Total Precipitation ......         1.417         7.865
  Evaporation Loss .........         0.000         0.000
  Infiltration Loss ........         0.000         0.000
  Surface Runoff ...........         1.399         7.761
  Final Storage ............         0.020         0.112
  Continuity Error (%) .....        -0.097
  
  
  **************************        Volume        Volume
  Flow Routing Continuity        hectare-m      10^6 ltr
  **************************     ---------     ---------
  Dry Weather Inflow .......         0.491         4.910
  Wet Weather Inflow .......         1.398        13.984
  Groundwater Inflow .......         0.000         0.000
  RDII Inflow ..............         0.000         0.000
  External Inflow ..........         0.000         0.000
  External Outflow .........         0.858         8.577
  Flooding Loss ............         0.210         2.101
  Evaporation Loss .........         0.000         0.000
  Exfiltration Loss ........         0.000         0.000
  Initial Stored Volume ....         0.000         0.000
  Final Stored Volume ......         0.638         6.377
  Continuity Error (%) .....         9.735
  
  
  *************************
  Highest Continuity Errors
  *************************
  Node T2 (29.91%)
  Node T4 (18.65%)
  Node T5 (17.86%)
  Node T3 (17.04%)
  Node T6 (12.75%)
  
  
  ***************************
  Time-Step Critical Elements
  ***************************
  Link C15 (49.93%)
  Link C21 (2.18%)
  
  
  ********************************
  Highest Flow Instability Indexes
  ********************************
  Link C13 (8)
  Link C18 (2)
  Link C20 (1)
  Link C15 (1)
  Link C4 (1)
  
  
  *************************
  Routing Time Step Summary
  *************************
  Minimum Time Step           :     0.80 sec
  Average Time Step           :    25.87 sec
  Maximum Time Step           :    30.00 sec
  Percent in Steady State     :     1.74
  Average Iterations per Step :     2.01
  Percent Not Converging      :     0.00
  
  
  ***************************
  Subcatchment Runoff Summary
  ***************************
  
  ------------------------------------------------------------------------------------------------------------------------------
                            Total      Total      Total      Total     Imperv       Perv      Total       Total     Peak  Runoff
                           Precip      Runon       Evap      Infil     Runoff     Runoff     Runoff      Runoff   Runoff   Coeff
  Subcatchment                 mm         mm         mm         mm         mm         mm         mm    10^6 ltr      CMS
  ------------------------------------------------------------------------------------------------------------------------------
  SC01                       7.93       0.00       0.00       0.00       7.86       0.00       7.86        2.59     0.28   0.991
  SC010                      7.93       0.00       0.00       0.00       7.84       0.00       7.84        0.92     0.09   0.988
  SC02                       7.67       0.00       0.00       0.00       7.58       0.00       7.58        1.73     0.15   0.989
  SC03                       7.94       0.00       0.00       0.00       7.89       0.00       7.89        1.42     0.13   0.993
  SC04                       7.67       0.00       0.00       0.00       7.51       0.00       7.51        0.52     0.04   0.979
  SC05                       7.93       0.00       0.00       0.00       7.86       0.00       7.86        1.23     0.13   0.991
  SC06                       7.85       0.00       0.00       0.00       7.66       0.00       7.66        2.49     0.19   0.976
  SC07                       7.67       0.00       0.00       0.00       7.51       0.00       7.51        0.36     0.03   0.979
  SC08                       7.94       0.00       0.00       0.00       7.85       0.00       7.85        2.20     0.19   0.989
  SC09                       7.85       0.00       0.00       0.00       7.73       0.00       7.73        0.53     0.04   0.985
  
  
  ******************
  Node Depth Summary
  ******************
  
  ---------------------------------------------------------------------------------
                                 Average  Maximum  Maximum  Time of Max    Reported
                                   Depth    Depth      HGL   Occurrence   Max Depth
  Node                 Type       Meters   Meters   Meters  days hr:min      Meters
  ---------------------------------------------------------------------------------
  CSO10                JUNCTION     0.13     0.25    30.25     0  05:01        0.24
  CSO7                 JUNCTION     0.10     0.16    34.16     0  03:06        0.15
  CSO8                 JUNCTION     0.14     0.27    32.27     0  03:05        0.27
  CSO9                 JUNCTION     0.11     0.19    40.19     0  01:15        0.19
  J1                   JUNCTION     0.08     0.13    34.13     0  05:01        0.13
  J10                  JUNCTION     0.10     0.18    29.18     0  03:05        0.18
  J11                  JUNCTION     0.11     0.19    31.19     0  03:06        0.19
  J12                  JUNCTION     0.21     0.34    26.34     0  06:03        0.33
  J13                  JUNCTION     0.07     0.11    29.11     0  03:06        0.11
  J14                  JUNCTION     0.13     0.15    20.15     0  06:08        0.15
  J15                  JUNCTION     0.18     0.26    15.26     0  05:06        0.25
  J16                  JUNCTION     0.07     0.14    30.14     0  05:01        0.13
  J17                  JUNCTION     0.06     0.07    20.07     0  06:03        0.07
  J18                  JUNCTION     0.06     0.11    29.11     0  05:04        0.11
  J19                  JUNCTION     0.15     0.17     8.17     0  03:32        0.17
  J2                   JUNCTION     0.07     0.08    25.08     0  05:45        0.08
  J3                   JUNCTION     0.11     0.13    18.13     0  05:52        0.13
  J4                   JUNCTION     0.12     0.19    33.19     0  03:17        0.19
  J5                   JUNCTION     0.07     0.10    32.10     0  03:16        0.10
  J6                   JUNCTION     0.06     0.07    25.07     0  05:59        0.07
  J7                   JUNCTION     0.09     0.14    39.14     0  01:16        0.14
  J8                   JUNCTION     0.11     0.17    36.17     0  02:56        0.17
  J9                   JUNCTION     0.10     0.11    29.11     0  04:15        0.11
  Out_to_WWTP          OUTFALL      0.15     0.17     6.17     0  06:23        0.17
  T1                   STORAGE      3.74     5.00    15.00     0  03:31        5.00
  T2                   STORAGE      2.82     4.05    25.05     0  06:01        4.05
  T3                   STORAGE      3.09     4.34    26.34     0  05:58        4.33
  T4                   STORAGE      2.92     4.40    31.40     0  05:57        4.40
  T5                   STORAGE      3.31     5.00    32.00     0  05:13        5.00
  T6                   STORAGE      3.84     5.00    36.00     0  02:48        5.00
  
  
  *******************
  Node Inflow Summary
  *******************
  
  -------------------------------------------------------------------------------------------------
                                  Maximum  Maximum                  Lateral       Total        Flow
                                  Lateral    Total  Time of Max      Inflow      Inflow     Balance
                                   Inflow   Inflow   Occurrence      Volume      Volume       Error
  Node                 Type           CMS      CMS  days hr:min    10^6 ltr    10^6 ltr     Percent
  -------------------------------------------------------------------------------------------------
  CSO10                JUNCTION     0.092    0.092     0  05:00        1.09        1.09      -0.057
  CSO7                 JUNCTION     0.040    0.040     0  03:05       0.717       0.717       0.060
  CSO8                 JUNCTION     0.202    0.202     0  03:05        2.56        2.56      -0.010
  CSO9                 JUNCTION     0.051    0.051     0  01:15       0.777       0.777       0.038
  J1                   JUNCTION     0.149    0.149     0  05:00        1.92        1.92      -0.144
  J10                  JUNCTION     0.143    0.344     0  03:05         1.9        4.46      -0.030
  J11                  JUNCTION     0.000    0.202     0  03:05           0        2.56      -0.067
  J12                  JUNCTION     0.000    0.418     0  03:06           0        6.88       0.330
  J13                  JUNCTION     0.167    0.167     0  03:05        2.31        2.31      -0.186
  J14                  JUNCTION     0.000    0.115     0  05:59           0        3.57       0.193
  J15                  JUNCTION     0.000    0.591     0  05:02           0        10.8       0.480
  J16                  JUNCTION     0.300    0.300     0  05:00        3.28        3.28      -0.180
  J17                  JUNCTION     0.000    0.030     0  06:01           0       0.924       0.629
  J18                  JUNCTION     0.000    0.092     0  05:01           0        1.09      -0.292
  J19                  JUNCTION     0.000    0.271     0  03:31           0        8.59       0.133
  J2                   JUNCTION     0.000    0.039     0  05:15           0        1.18       0.407
  J3                   JUNCTION     0.000    0.181     0  05:50           0        5.53       0.647
  J4                   JUNCTION     0.000    0.040     0  03:06           0       0.717       0.456
  J5                   JUNCTION     0.046    0.086     0  03:15       0.676        1.39       0.056
  J6                   JUNCTION     0.000    0.026     0  05:58           0       0.791       0.457
  J7                   JUNCTION     0.000    0.051     0  01:15           0       0.777       0.334
  J8                   JUNCTION     0.225    0.273     0  02:55        3.66        4.44       0.028
  J9                   JUNCTION     0.000    0.075     0  02:48           0        2.44       0.639
  Out_to_WWTP          OUTFALL      0.000    0.271     0  03:32           0        8.58       0.000
  T1                   STORAGE      0.000    0.573     0  05:07           0        10.7       6.246
  T2                   STORAGE      0.000    0.167     0  03:06           0        2.31      42.676
  T3                   STORAGE      0.000    0.417     0  03:07           0        6.86      20.545
  T4                   STORAGE      0.000    0.086     0  03:16           0        1.39      22.931
  T5                   STORAGE      0.000    0.148     0  05:01           0        1.93      21.737
  T6                   STORAGE      0.000    0.272     0  02:56           0        4.44      14.618
  
  
  **********************
  Node Surcharge Summary
  **********************
  
  No nodes were surcharged.
  
  
  *********************
  Node Flooding Summary
  *********************
  
  Flooding refers to all water that overflows a node, whether it ponds or not.
  --------------------------------------------------------------------------
                                                             Total   Maximum
                                 Maximum   Time of Max       Flood    Ponded
                        Hours       Rate    Occurrence      Volume     Depth
  Node                 Flooded       CMS   days hr:min    10^6 ltr    Meters
  --------------------------------------------------------------------------
  T1                      2.58     0.302      0  05:07       1.001     0.000
  T5                      0.53     0.073      0  05:13       0.057     0.000
  T6                      2.91     0.197      0  02:56       1.041     0.000
  
  
  **********************
  Storage Volume Summary
  **********************
  
  --------------------------------------------------------------------------------------------------
                         Average     Avg  Evap Exfil       Maximum     Max    Time of Max    Maximum
                          Volume    Pcnt  Pcnt  Pcnt        Volume    Pcnt     Occurrence    Outflow
  Storage Unit           1000 m3    Full  Loss  Loss       1000 m3    Full    days hr:min        CMS
  --------------------------------------------------------------------------------------------------
  T1                       0.524      75     0     0         0.700     100       0  03:31      0.271
  T2                       0.564      56     0     0         0.811      81       0  06:01      0.030
  T3                       1.607      62     0     0         2.255      87       0  05:58      0.115
  T4                       0.292      58     0     0         0.440      88       0  05:57      0.026
  T5                       0.331      66     0     0         0.500     100       0  05:13      0.039
  T6                       0.461      77     0     0         0.600     100       0  02:48      0.075
  
  
  ***********************
  Outfall Loading Summary
  ***********************
  
  -----------------------------------------------------------
                         Flow       Avg       Max       Total
                         Freq      Flow      Flow      Volume
  Outfall Node           Pcnt       CMS       CMS    10^6 ltr
  -----------------------------------------------------------
  Out_to_WWTP           99.25     0.224     0.271       8.577
  -----------------------------------------------------------
  System                99.25     0.224     0.271       8.577
  
  
  ********************
  Link Flow Summary
  ********************
  
  -----------------------------------------------------------------------------
                                 Maximum  Time of Max   Maximum    Max/    Max/
                                  |Flow|   Occurrence   |Veloc|    Full    Full
  Link                 Type          CMS  days hr:min     m/sec    Flow   Depth
  -----------------------------------------------------------------------------
  C1                   CONDUIT     0.039     0  05:46      0.92    0.01    0.11
  C10                  CONDUIT     0.272     0  02:56      1.66    0.03    0.56
  C11                  CONDUIT     0.181     0  05:52      1.68    0.01    0.10
  C12                  CONDUIT     0.075     0  04:01      1.06    0.01    0.11
  C13                  CONDUIT     0.417     0  03:07      1.92    0.02    0.58
  C14                  CONDUIT     0.271     0  03:32      2.08    0.02    0.09
  C15                  CONDUIT     0.202     0  03:05      2.40    0.64    0.52
  C16                  CONDUIT     0.201     0  03:06      1.35    0.02    0.09
  C17                  CONDUIT     0.343     0  03:06      2.16    0.02    0.10
  C18                  CONDUIT     0.167     0  03:06      3.36    0.01    0.53
  C19                  CONDUIT     0.030     0  06:03      0.57    0.01    0.16
  C2                   CONDUIT     0.026     0  06:00      0.82    0.03    0.17
  C20                  CONDUIT     0.297     0  05:01      2.34    0.01    0.10
  C21                  CONDUIT     0.092     0  05:01      1.59    0.53    0.40
  C22                  CONDUIT     0.090     0  05:05      1.06    0.04    0.23
  C23                  CONDUIT     0.573     0  05:07      1.51    0.06    0.59
  C3                   CONDUIT     0.115     0  05:59      1.74    0.04    0.14
  C4                   CONDUIT     0.148     0  05:01      3.06    0.04    0.56
  C5                   CONDUIT     0.040     0  03:06      1.23    0.68    0.67
  C6                   CONDUIT     0.040     0  03:17      1.19    0.63    0.48
  C7                   CONDUIT     0.086     0  03:16      1.44    0.02    0.55
  C8                   CONDUIT     0.051     0  01:15      1.21    0.64    0.53
  C9                   CONDUIT     0.051     0  01:16      0.98    0.17    0.31
  V1                   ORIFICE     0.271     0  03:31                      1.00
  V2                   ORIFICE     0.030     0  06:01                      0.24
  V3                   ORIFICE     0.115     0  05:59                      0.65
  V4                   ORIFICE     0.026     0  05:58                      0.35
  V5                   ORIFICE     0.039     0  05:15                      1.00
  V6                   ORIFICE     0.075     0  02:48                      0.43
  
  
  ***************************
  Flow Classification Summary
  ***************************
  
  -------------------------------------------------------------------------------------
                      Adjusted    ---------- Fraction of Time in Flow Class ---------- 
                       /Actual         Up    Down  Sub   Sup   Up    Down  Norm  Inlet 
  Conduit               Length    Dry  Dry   Dry   Crit  Crit  Crit  Crit  Ltd   Ctrl  
  -------------------------------------------------------------------------------------
  C1                      1.00   0.00  0.00  0.00  0.15  0.85  0.00  0.00  0.96  0.00
  C10                     1.00   0.00  0.00  0.00  0.97  0.03  0.00  0.00  0.98  0.00
  C11                     1.00   0.00  0.00  0.00  0.17  0.83  0.00  0.00  1.00  0.00
  C12                     1.00   0.00  0.00  0.00  0.97  0.03  0.00  0.00  0.99  0.00
  C13                     1.00   0.00  0.00  0.00  0.92  0.08  0.00  0.00  0.38  0.00
  C14                     1.00   0.00  0.00  0.00  0.00  0.99  0.00  0.00  0.28  0.00
  C15                     1.00   0.00  0.00  0.00  0.02  0.98  0.00  0.00  0.04  0.00
  C16                     1.00   0.00  0.00  0.00  0.37  0.63  0.00  0.00  0.15  0.00
  C17                     1.00   0.00  0.00  0.00  0.49  0.51  0.00  0.00  0.98  0.00
  C18                     1.00   0.00  0.00  0.00  0.94  0.06  0.00  0.00  0.98  0.00
  C19                     1.00   0.00  0.00  0.00  1.00  0.00  0.00  0.00  1.00  0.00
  C2                      1.00   0.00  0.00  0.00  0.94  0.05  0.00  0.00  0.98  0.00
  C20                     1.00   0.00  0.00  0.00  0.44  0.56  0.00  0.00  0.99  0.00
  C21                     1.00   0.00  0.00  0.00  0.00  1.00  0.00  0.00  0.00  0.00
  C22                     1.00   0.00  0.00  0.00  0.88  0.12  0.00  0.00  1.00  0.00
  C23                     1.00   0.00  0.00  0.00  0.94  0.06  0.00  0.00  0.96  0.00
  C3                      1.00   0.00  0.00  0.00  0.03  0.96  0.00  0.00  0.05  0.00
  C4                      1.00   0.00  0.00  0.00  0.97  0.03  0.00  0.00  0.99  0.00
  C5                      1.00   0.00  0.00  0.00  0.93  0.07  0.00  0.00  0.99  0.00
  C6                      1.00   0.00  0.00  0.00  0.01  0.99  0.00  0.00  0.00  0.00
  C7                      1.00   0.00  0.00  0.00  0.96  0.04  0.00  0.00  0.98  0.00
  C8                      1.00   0.00  0.00  0.00  0.00  1.00  0.00  0.00  0.00  0.00
  C9                      1.00   0.00  0.00  0.00  1.00  0.00  0.00  0.00  1.00  0.00
  
  
  *************************
  Conduit Surcharge Summary
  *************************
  
  ----------------------------------------------------------------------------
                                                           Hours        Hours 
                         --------- Hours Full --------   Above Full   Capacity
  Conduit                Both Ends  Upstream  Dnstream   Normal Flow   Limited
  ----------------------------------------------------------------------------
  C10                         0.01      0.01      9.38      0.01         0.01
  C13                         0.01      0.01      8.01      0.01         0.01
  C18                         0.01      0.01      7.87      0.01         0.01
  C23                         0.01      0.01      9.32      0.01         0.01
  C4                          0.01      0.01      9.44      0.01         0.01
  C7                          0.01      0.01      9.01      0.01         0.01
  

  Analysis begun on:  Sun Jul 17 21:26:16 2022
  Analysis ended on:  Sun Jul 17 21:26:16 2022
  Total elapsed time: < 1 sec