
  EPA STORM WATER MANAGEMENT MODEL - VERSION 5.1 (Build 5.3.0.dev0)
  --------------------------------------------------------------

  
  *********************************************************
  NOTE: The summary statistics displayed in this report are
  based on results found at every computational time step,  
  not just on results from each reporting time step.
  *********************************************************
  
  ****************
  Analysis Options
  ****************
  Flow Units ............... CMS
  Process Models:
    Rainfall/Runoff ........ YES
    RDII ................... NO
    Snowmelt ............... NO
    Groundwater ............ NO
    Flow Routing ........... YES
    Ponding Allowed ........ NO
    Water Quality .......... NO
  Infiltration Method ...... HORTON
  Flow Routing Method ...... DYNWAVE
  Surcharge Method ......... EXTRAN
  Starting Date ............ 08/30/2008 11:05:00
  Ending Date .............. 08/30/2008 21:55:00
  Antecedent Dry Days ...... 0.0
  Report Time Step ......... 00:05:00
  Wet Time Step ............ 00:05:00
  Dry Time Step ............ 01:00:00
  Routing Time Step ........ 30.00 sec
  Variable Time Step ....... YES
  Maximum Trials ........... 8
  Number of Threads ........ 1
  Head Tolerance ........... 0.001500 m
  
  
  **************************        Volume         Depth
  Runoff Quantity Continuity     hectare-m            mm
  **************************     ---------       -------
  Total Precipitation ......         1.032         5.728
  Evaporation Loss .........         0.000         0.000
  Infiltration Loss ........         0.000         0.000
  Surface Runoff ...........         1.003         5.565
  Final Storage ............         0.031         0.171
  Continuity Error (%) .....        -0.145
  
  
  **************************        Volume        Volume
  Flow Routing Continuity        hectare-m      10^6 ltr
  **************************     ---------     ---------
  Dry Weather Inflow .......         0.449         4.486
  Wet Weather Inflow .......         1.003        10.029
  Groundwater Inflow .......         0.000         0.000
  RDII Inflow ..............         0.000         0.000
  External Inflow ..........         0.000         0.000
  External Outflow .........         0.782         7.824
  Flooding Loss ............         0.000         0.000
  Evaporation Loss .........         0.000         0.000
  Exfiltration Loss ........         0.000         0.000
  Initial Stored Volume ....         0.000         0.000
  Final Stored Volume ......         0.546         5.462
  Continuity Error (%) .....         8.470
  
  
  *************************
  Highest Continuity Errors
  *************************
  Node T2 (29.38%)
  Node T4 (17.65%)
  Node T6 (17.25%)
  Node T3 (17.02%)
  Node T5 (16.13%)
  
  
  ***************************
  Time-Step Critical Elements
  ***************************
  Link C15 (31.91%)
  
  
  ********************************
  Highest Flow Instability Indexes
  ********************************
  Link C15 (3)
  Link C20 (2)
  Link C18 (2)
  Link C21 (1)
  Link C17 (1)
  
  
  *************************
  Routing Time Step Summary
  *************************
  Minimum Time Step           :     0.32 sec
  Average Time Step           :    27.73 sec
  Maximum Time Step           :    30.00 sec
  Percent in Steady State     :     5.31
  Average Iterations per Step :     2.01
  Percent Not Converging      :     0.00
  
  
  ***************************
  Subcatchment Runoff Summary
  ***************************
  
  ------------------------------------------------------------------------------------------------------------------------------
                            Total      Total      Total      Total     Imperv       Perv      Total       Total     Peak  Runoff
                           Precip      Runon       Evap      Infil     Runoff     Runoff     Runoff      Runoff   Runoff   Coeff
  Subcatchment                 mm         mm         mm         mm         mm         mm         mm    10^6 ltr      CMS
  ------------------------------------------------------------------------------------------------------------------------------
  SC01                       5.63       0.00       0.00       0.00       5.52       0.00       5.52        1.82     0.30   0.980
  SC010                      5.63       0.00       0.00       0.00       5.48       0.00       5.48        0.64     0.10   0.972
  SC02                       5.83       0.00       0.00       0.00       5.70       0.00       5.70        1.30     0.19   0.978
  SC03                       6.42       0.00       0.00       0.00       6.35       0.00       6.35        1.14     0.16   0.989
  SC04                       5.83       0.00       0.00       0.00       5.55       0.00       5.55        0.38     0.04   0.952
  SC05                       5.63       0.00       0.00       0.00       5.51       0.00       5.51        0.86     0.14   0.978
  SC06                       4.98       0.00       0.00       0.00       4.71       0.00       4.71        1.53     0.17   0.945
  SC07                       5.83       0.00       0.00       0.00       5.55       0.00       5.55        0.26     0.03   0.952
  SC08                       6.42       0.00       0.00       0.00       6.27       0.00       6.27        1.75     0.22   0.976
  SC09                       4.98       0.00       0.00       0.00       4.81       0.00       4.81        0.33     0.04   0.966
  
  
  ******************
  Node Depth Summary
  ******************
  
  ---------------------------------------------------------------------------------
                                 Average  Maximum  Maximum  Time of Max    Reported
                                   Depth    Depth      HGL   Occurrence   Max Depth
  Node                 Type       Meters   Meters   Meters  days hr:min      Meters
  ---------------------------------------------------------------------------------
  CSO10                JUNCTION     0.11     0.27    30.27     0  01:30        0.26
  CSO7                 JUNCTION     0.09     0.16    34.16     0  01:30        0.16
  CSO8                 JUNCTION     0.13     0.30    32.30     0  01:20        0.30
  CSO9                 JUNCTION     0.09     0.19    40.19     0  02:10        0.18
  J1                   JUNCTION     0.07     0.14    34.14     0  01:30        0.14
  J10                  JUNCTION     0.09     0.19    29.19     0  01:22        0.19
  J11                  JUNCTION     0.10     0.21    31.21     0  01:23        0.21
  J12                  JUNCTION     0.13     0.22    26.22     0  01:25        0.22
  J13                  JUNCTION     0.06     0.12    29.12     0  01:30        0.12
  J14                  JUNCTION     0.12     0.14    20.14     0  09:17        0.14
  J15                  JUNCTION     0.16     0.24    15.24     0  01:36        0.24
  J16                  JUNCTION     0.06     0.14    30.14     0  01:30        0.14
  J17                  JUNCTION     0.06     0.07    20.07     0  09:17        0.07
  J18                  JUNCTION     0.05     0.12    29.12     0  01:33        0.12
  J19                  JUNCTION     0.14     0.16     8.16     0  03:02        0.16
  J2                   JUNCTION     0.06     0.07    25.07     0  08:44        0.07
  J3                   JUNCTION     0.11     0.12    18.12     0  09:09        0.12
  J4                   JUNCTION     0.11     0.19    33.19     0  01:35        0.19
  J5                   JUNCTION     0.06     0.10    32.10     0  01:33        0.10
  J6                   JUNCTION     0.06     0.06    25.06     0  09:15        0.06
  J7                   JUNCTION     0.07     0.14    39.14     0  01:36        0.14
  J8                   JUNCTION     0.10     0.16    36.16     0  02:13        0.16
  J9                   JUNCTION     0.09     0.10    29.10     0  05:00        0.10
  Out_to_WWTP          OUTFALL      0.14     0.16     6.16     0  03:02        0.16
  T1                   STORAGE      2.95     3.95    13.95     0  03:01        3.94
  T2                   STORAGE      1.88     2.77    23.77     0  09:15        2.77
  T3                   STORAGE      2.29     3.31    25.31     0  09:14        3.31
  T4                   STORAGE      1.98     2.78    29.78     0  09:13        2.78
  T5                   STORAGE      2.32     2.92    29.92     0  08:43        2.92
  T6                   STORAGE      3.06     4.06    35.06     0  04:57        4.06
  
  
  *******************
  Node Inflow Summary
  *******************
  
  -------------------------------------------------------------------------------------------------
                                  Maximum  Maximum                  Lateral       Total        Flow
                                  Lateral    Total  Time of Max      Inflow      Inflow     Balance
                                   Inflow   Inflow   Occurrence      Volume      Volume       Error
  Node                 Type           CMS      CMS  days hr:min    10^6 ltr    10^6 ltr     Percent
  -------------------------------------------------------------------------------------------------
  CSO10                JUNCTION     0.103    0.103     0  01:30       0.804       0.805       0.012
  CSO7                 JUNCTION     0.043    0.043     0  01:30       0.599       0.599      -0.037
  CSO8                 JUNCTION     0.232    0.232     0  01:20        2.01        2.01       0.006
  CSO9                 JUNCTION     0.048    0.048     0  02:10       0.558       0.559      -0.004
  J1                   JUNCTION     0.165    0.165     0  01:30        1.51        1.51      -0.137
  J10                  JUNCTION     0.178    0.400     0  01:20        1.59        3.59      -0.006
  J11                  JUNCTION     0.000    0.232     0  01:20           0        2.01       0.095
  J12                  JUNCTION     0.000    0.427     0  01:23           0        5.83       0.210
  J13                  JUNCTION     0.208    0.208     0  01:30        1.84        1.84      -0.351
  J14                  JUNCTION     0.000    0.100     0  09:14           0        3.17       0.199
  J15                  JUNCTION     0.000    0.530     0  01:31           0        8.86       0.757
  J16                  JUNCTION     0.329    0.329     0  01:30        2.46        2.46      -0.094
  J17                  JUNCTION     0.000    0.025     0  09:15           0       0.777       0.669
  J18                  JUNCTION     0.000    0.103     0  01:31           0       0.804      -0.032
  J19                  JUNCTION     0.000    0.240     0  03:02           0        7.83       0.135
  J2                   JUNCTION     0.000    0.030     0  08:43           0        1.02       0.416
  J3                   JUNCTION     0.000    0.151     0  09:06           0        4.85       0.673
  J4                   JUNCTION     0.000    0.043     0  01:30           0       0.599       0.367
  J5                   JUNCTION     0.049    0.090     0  01:32        0.53        1.13      -0.008
  J6                   JUNCTION     0.000    0.021     0  09:13           0       0.673       0.485
  J7                   JUNCTION     0.000    0.047     0  02:11           0       0.559       0.335
  J8                   JUNCTION     0.204    0.246     0  02:10        2.62        3.18      -0.045
  J9                   JUNCTION     0.000    0.068     0  04:58           0        2.25       0.713
  Out_to_WWTP          OUTFALL      0.000    0.240     0  03:02           0        7.82       0.000
  T1                   STORAGE      0.000    0.523     0  01:36           0        8.79       6.142
  T2                   STORAGE      0.000    0.207     0  01:30           0        1.84      41.597
  T3                   STORAGE      0.000    0.425     0  01:25           0        5.82      20.504
  T4                   STORAGE      0.000    0.090     0  01:34           0        1.13      21.427
  T5                   STORAGE      0.000    0.165     0  01:30           0        1.51      19.231
  T6                   STORAGE      0.000    0.244     0  02:13           0        3.18      20.845
  
  
  **********************
  Node Surcharge Summary
  **********************
  
  No nodes were surcharged.
  
  
  *********************
  Node Flooding Summary
  *********************
  
  No nodes were flooded.
  
  
  **********************
  Storage Volume Summary
  **********************
  
  --------------------------------------------------------------------------------------------------
                         Average     Avg  Evap Exfil       Maximum     Max    Time of Max    Maximum
                          Volume    Pcnt  Pcnt  Pcnt        Volume    Pcnt     Occurrence    Outflow
  Storage Unit           1000 m3    Full  Loss  Loss       1000 m3    Full    days hr:min        CMS
  --------------------------------------------------------------------------------------------------
  T1                       0.413      59     0     0         0.552      79       0  03:01      0.240
  T2                       0.377      38     0     0         0.554      55       0  09:15      0.025
  T3                       1.190      46     0     0         1.722      66       0  09:14      0.100
  T4                       0.198      40     0     0         0.278      56       0  09:13      0.021
  T5                       0.232      46     0     0         0.292      58       0  08:43      0.030
  T6                       0.367      61     0     0         0.488      81       0  04:57      0.068
  
  
  ***********************
  Outfall Loading Summary
  ***********************
  
  -----------------------------------------------------------
                         Flow       Avg       Max       Total
                         Freq      Flow      Flow      Volume
  Outfall Node           Pcnt       CMS       CMS    10^6 ltr
  -----------------------------------------------------------
  Out_to_WWTP           99.36     0.197     0.240       7.824
  -----------------------------------------------------------
  System                99.36     0.197     0.240       7.824
  
  
  ********************
  Link Flow Summary
  ********************
  
  -----------------------------------------------------------------------------
                                 Maximum  Time of Max   Maximum    Max/    Max/
                                  |Flow|   Occurrence   |Veloc|    Full    Full
  Link                 Type          CMS  days hr:min     m/sec    Flow   Depth
  -----------------------------------------------------------------------------
  C1                   CONDUIT     0.030     0  08:45      0.96    0.01    0.10
  C10                  CONDUIT     0.244     0  02:13      1.81    0.03    0.55
  C11                  CONDUIT     0.151     0  09:09      1.59    0.01    0.09
  C12                  CONDUIT     0.068     0  05:00      1.07    0.01    0.07
  C13                  CONDUIT     0.425     0  01:25      1.97    0.02    0.54
  C14                  CONDUIT     0.240     0  03:02      2.01    0.01    0.08
  C15                  CONDUIT     0.232     0  01:20      2.50    0.74    0.56
  C16                  CONDUIT     0.230     0  01:23      1.40    0.02    0.10
  C17                  CONDUIT     0.399     0  01:22      2.35    0.02    0.10
  C18                  CONDUIT     0.207     0  01:30      3.17    0.01    0.52
  C19                  CONDUIT     0.025     0  09:17      0.53    0.01    0.15
  C2                   CONDUIT     0.021     0  09:15      0.74    0.02    0.16
  C20                  CONDUIT     0.329     0  01:30      3.22    0.01    0.10
  C21                  CONDUIT     0.103     0  01:31      1.63    0.59    0.43
  C22                  CONDUIT     0.103     0  01:33      1.21    0.05    0.23
  C23                  CONDUIT     0.523     0  01:36      1.35    0.06    0.58
  C3                   CONDUIT     0.100     0  09:15      1.68    0.04    0.13
  C4                   CONDUIT     0.165     0  01:30      3.10    0.04    0.57
  C5                   CONDUIT     0.043     0  01:30      1.34    0.73    0.70
  C6                   CONDUIT     0.042     0  01:35      1.20    0.67    0.50
  C7                   CONDUIT     0.090     0  01:34      1.57    0.02    0.55
  C8                   CONDUIT     0.047     0  02:11      1.21    0.60    0.50
  C9                   CONDUIT     0.047     0  01:36      0.97    0.16    0.30
  V1                   ORIFICE     0.240     0  03:02                      1.00
  V2                   ORIFICE     0.025     0  09:15                      0.24
  V3                   ORIFICE     0.100     0  09:14                      0.65
  V4                   ORIFICE     0.021     0  09:13                      0.35
  V5                   ORIFICE     0.030     0  08:43                      1.00
  V6                   ORIFICE     0.068     0  04:58                      0.43
  
  
  ***************************
  Flow Classification Summary
  ***************************
  
  -------------------------------------------------------------------------------------
                      Adjusted    ---------- Fraction of Time in Flow Class ---------- 
                       /Actual         Up    Down  Sub   Sup   Up    Down  Norm  Inlet 
  Conduit               Length    Dry  Dry   Dry   Crit  Crit  Crit  Crit  Ltd   Ctrl  
  -------------------------------------------------------------------------------------
  C1                      1.00   0.00  0.00  0.00  0.52  0.48  0.00  0.00  0.97  0.00
  C10                     1.00   0.00  0.00  0.00  0.98  0.02  0.00  0.00  0.99  0.00
  C11                     1.00   0.00  0.00  0.00  0.18  0.82  0.00  0.00  1.00  0.00
  C12                     1.00   0.00  0.00  0.00  0.44  0.56  0.00  0.00  0.91  0.00
  C13                     1.00   0.00  0.00  0.00  0.94  0.06  0.00  0.00  0.95  0.00
  C14                     1.00   0.00  0.00  0.00  0.01  0.99  0.00  0.00  0.12  0.00
  C15                     1.00   0.00  0.00  0.00  0.00  1.00  0.00  0.00  0.00  0.00
  C16                     1.00   0.00  0.00  0.00  0.22  0.78  0.00  0.00  0.26  0.00
  C17                     1.00   0.00  0.00  0.00  0.17  0.83  0.00  0.00  0.98  0.00
  C18                     1.00   0.00  0.00  0.00  0.96  0.04  0.00  0.00  0.98  0.00
  C19                     1.00   0.00  0.00  0.00  1.00  0.00  0.00  0.00  1.00  0.00
  C2                      1.00   0.00  0.00  0.00  0.96  0.04  0.00  0.00  0.98  0.00
  C20                     1.00   0.00  0.00  0.00  0.68  0.32  0.00  0.00  0.99  0.00
  C21                     1.00   0.00  0.00  0.00  0.00  1.00  0.00  0.00  0.00  0.00
  C22                     1.00   0.00  0.00  0.00  0.90  0.10  0.00  0.00  1.00  0.00
  C23                     1.00   0.00  0.00  0.00  0.93  0.07  0.00  0.00  0.97  0.00
  C3                      1.00   0.00  0.00  0.00  0.02  0.97  0.00  0.00  0.03  0.00
  C4                      1.00   0.00  0.00  0.00  0.98  0.02  0.00  0.00  0.99  0.00
  C5                      1.00   0.00  0.00  0.00  0.94  0.06  0.00  0.00  0.99  0.00
  C6                      1.00   0.00  0.00  0.00  0.01  0.99  0.00  0.00  0.00  0.00
  C7                      1.00   0.00  0.00  0.00  0.97  0.03  0.00  0.00  0.98  0.00
  C8                      1.00   0.00  0.00  0.00  0.01  0.99  0.00  0.00  0.00  0.00
  C9                      1.00   0.00  0.00  0.00  1.00  0.00  0.00  0.00  1.00  0.00
  
  
  *************************
  Conduit Surcharge Summary
  *************************
  
  ----------------------------------------------------------------------------
                                                           Hours        Hours 
                         --------- Hours Full --------   Above Full   Capacity
  Conduit                Both Ends  Upstream  Dnstream   Normal Flow   Limited
  ----------------------------------------------------------------------------
  C10                         0.01      0.01      9.10      0.01         0.01
  C13                         0.01      0.01      8.31      0.01         0.01
  C18                         0.01      0.01      7.17      0.01         0.01
  C23                         0.01      0.01      9.30      0.01         0.01
  C4                          0.01      0.01      9.39      0.01         0.01
  C7                          0.01      0.01      9.20      0.01         0.01
  

  Analysis begun on:  Sun Jul 17 20:59:13 2022
  Analysis ended on:  Sun Jul 17 20:59:14 2022
  Total elapsed time: 00:00:01