
  EPA STORM WATER MANAGEMENT MODEL - VERSION 5.1 (Build 5.3.0.dev0)
  --------------------------------------------------------------

  
  *********************************************************
  NOTE: The summary statistics displayed in this report are
  based on results found at every computational time step,  
  not just on results from each reporting time step.
  *********************************************************
  
  ****************
  Analysis Options
  ****************
  Flow Units ............... CMS
  Process Models:
    Rainfall/Runoff ........ YES
    RDII ................... NO
    Snowmelt ............... NO
    Groundwater ............ NO
    Flow Routing ........... YES
    Ponding Allowed ........ NO
    Water Quality .......... NO
  Infiltration Method ...... HORTON
  Flow Routing Method ...... DYNWAVE
  Surcharge Method ......... EXTRAN
  Starting Date ............ 09/30/2008 13:35:00
  Ending Date .............. 09/30/2008 16:20:00
  Antecedent Dry Days ...... 0.0
  Report Time Step ......... 00:05:00
  Wet Time Step ............ 00:05:00
  Dry Time Step ............ 01:00:00
  Routing Time Step ........ 30.00 sec
  Variable Time Step ....... YES
  Maximum Trials ........... 8
  Number of Threads ........ 1
  Head Tolerance ........... 0.001500 m
  
  
  **************************        Volume         Depth
  Runoff Quantity Continuity     hectare-m            mm
  **************************     ---------       -------
  Total Precipitation ......         0.952         5.283
  Evaporation Loss .........         0.000         0.000
  Infiltration Loss ........         0.000         0.000
  Surface Runoff ...........         0.924         5.130
  Final Storage ............         0.041         0.229
  Continuity Error (%) .....        -1.452
  
  
  **************************        Volume        Volume
  Flow Routing Continuity        hectare-m      10^6 ltr
  **************************     ---------     ---------
  Dry Weather Inflow .......         0.121         1.210
  Wet Weather Inflow .......         0.922         9.217
  Groundwater Inflow .......         0.000         0.000
  RDII Inflow ..............         0.000         0.000
  External Inflow ..........         0.000         0.000
  External Outflow .........         0.080         0.799
  Flooding Loss ............         0.339         3.392
  Evaporation Loss .........         0.000         0.000
  Exfiltration Loss ........         0.000         0.000
  Initial Stored Volume ....         0.000         0.000
  Final Stored Volume ......         0.500         4.998
  Continuity Error (%) .....        11.870
  
  
  *************************
  Highest Continuity Errors
  *************************
  Node T6 (34.00%)
  Node T3 (28.19%)
  Node T5 (23.55%)
  Node T4 (22.63%)
  Node T2 (21.38%)
  
  
  ***************************
  Time-Step Critical Elements
  ***************************
  Link C15 (44.03%)
  Link C8 (7.71%)
  Link C5 (3.48%)
  
  
  ********************************
  Highest Flow Instability Indexes
  ********************************
  Link C6 (4)
  Link C5 (4)
  Link C18 (3)
  Link C14 (2)
  Link C7 (2)
  
  
  *************************
  Routing Time Step Summary
  *************************
  Minimum Time Step           :     0.09 sec
  Average Time Step           :    24.62 sec
  Maximum Time Step           :    30.00 sec
  Percent in Steady State     :     0.00
  Average Iterations per Step :     3.29
  Percent Not Converging      :     7.71
  
  
  ***************************
  Subcatchment Runoff Summary
  ***************************
  
  ------------------------------------------------------------------------------------------------------------------------------
                            Total      Total      Total      Total     Imperv       Perv      Total       Total     Peak  Runoff
                           Precip      Runon       Evap      Infil     Runoff     Runoff     Runoff      Runoff   Runoff   Coeff
  Subcatchment                 mm         mm         mm         mm         mm         mm         mm    10^6 ltr      CMS
  ------------------------------------------------------------------------------------------------------------------------------
  SC01                       0.00       0.00       0.00       0.00       0.00       0.00       0.00        0.00     0.00   0.000
  SC010                      0.00       0.00       0.00       0.00       0.00       0.00       0.00        0.00     0.00   0.000
  SC02                      17.04       0.00       0.00       0.00      17.20       0.00      17.20        3.91     3.20   1.009
  SC03                       2.72       0.00       0.00       0.00       2.63       0.00       2.63        0.47     0.25   0.968
  SC04                      17.04       0.00       0.00       0.00      16.76       0.00      16.76        1.16     0.71   0.984
  SC05                       0.00       0.00       0.00       0.00       0.00       0.00       0.00        0.00     0.00   0.000
  SC06                       6.10       0.00       0.00       0.00       5.55       0.00       5.55        1.81     0.87   0.909
  SC07                      17.04       0.00       0.00       0.00      16.77       0.00      16.77        0.80     0.49   0.984
  SC08                       2.72       0.00       0.00       0.00       2.48       0.00       2.48        0.70     0.31   0.913
  SC09                       6.10       0.00       0.00       0.00       5.85       0.00       5.85        0.40     0.25   0.960
  
  
  ******************
  Node Depth Summary
  ******************
  
  ---------------------------------------------------------------------------------
                                 Average  Maximum  Maximum  Time of Max    Reported
                                   Depth    Depth      HGL   Occurrence   Max Depth
  Node                 Type       Meters   Meters   Meters  days hr:min      Meters
  ---------------------------------------------------------------------------------
  CSO10                JUNCTION     0.05     0.06    30.06     0  00:05        0.06
  CSO7                 JUNCTION     0.50     1.20    35.20     0  00:09        1.20
  CSO8                 JUNCTION     0.16     0.39    32.39     0  00:50        0.39
  CSO9                 JUNCTION     0.51     2.00    42.00     0  00:23        2.00
  J1                   JUNCTION     0.05     0.06    34.06     0  00:04        0.06
  J10                  JUNCTION     0.11     0.22    29.22     0  00:51        0.22
  J11                  JUNCTION     0.12     0.24    31.24     0  00:51        0.23
  J12                  JUNCTION     0.15     0.25    26.25     0  00:53        0.25
  J13                  JUNCTION     0.13     0.47    29.47     0  00:16        0.46
  J14                  JUNCTION     0.08     0.12    20.12     0  02:44        0.12
  J15                  JUNCTION     0.12     0.14    15.14     0  02:26        0.14
  J16                  JUNCTION     0.04     0.04    30.04     0  00:05        0.04
  J17                  JUNCTION     0.07     0.08    20.08     0  01:14        0.08
  J18                  JUNCTION     0.03     0.03    29.03     0  00:25        0.03
  J19                  JUNCTION     0.09     0.12     8.12     0  02:44        0.12
  J2                   JUNCTION     0.04     0.04    25.04     0  02:44        0.04
  J3                   JUNCTION     0.08     0.11    18.11     0  02:44        0.11
  J4                   JUNCTION     0.31     0.75    33.75     0  00:54        0.75
  J5                   JUNCTION     0.12     0.30    32.30     0  00:21        0.30
  J6                   JUNCTION     0.07     0.07    25.07     0  00:36        0.07
  J7                   JUNCTION     0.12     0.23    39.23     0  00:46        0.23
  J8                   JUNCTION     0.16     0.32    36.32     0  00:36        0.31
  J9                   JUNCTION     0.09     0.11    29.11     0  02:11        0.11
  Out_to_WWTP          OUTFALL      0.09     0.12     6.12     0  02:44        0.12
  T1                   STORAGE      0.56     1.23    11.23     0  02:44        1.20
  T2                   STORAGE      4.50     5.00    26.00     0  00:22        5.00
  T3                   STORAGE      0.93     1.73    23.73     0  02:44        1.72
  T4                   STORAGE      4.32     5.00    32.00     0  00:34        5.00
  T5                   STORAGE      0.27     0.41    27.41     0  02:44        0.41
  T6                   STORAGE      3.64     5.00    36.00     0  01:02        5.00
  
  
  *******************
  Node Inflow Summary
  *******************
  
  -------------------------------------------------------------------------------------------------
                                  Maximum  Maximum                  Lateral       Total        Flow
                                  Lateral    Total  Time of Max      Inflow      Inflow     Balance
                                   Inflow   Inflow   Occurrence      Volume      Volume       Error
  Node                 Type           CMS      CMS  days hr:min    10^6 ltr    10^6 ltr     Percent
  -------------------------------------------------------------------------------------------------
  CSO10                JUNCTION     0.006    0.006     0  00:00       0.042       0.042       0.948
  CSO7                 JUNCTION     0.504    0.504     0  00:20       0.881       0.881       0.187
  CSO8                 JUNCTION     0.318    0.318     0  00:50       0.797       0.797       0.152
  CSO9                 JUNCTION     0.260    0.260     0  00:35       0.462       0.462       0.109
  J1                   JUNCTION     0.023    0.023     0  00:00        0.17        0.17       0.634
  J10                  JUNCTION     0.267    0.552     0  00:50        0.59        1.38       0.565
  J11                  JUNCTION     0.000    0.315     0  00:50           0       0.796       1.258
  J12                  JUNCTION     0.000    0.604     0  00:51           0        1.95       1.307
  J13                  JUNCTION     3.215    3.215     0  00:15        4.04        4.04      -0.346
  J14                  JUNCTION     0.000    0.072     0  02:44           0       0.479       1.100
  J15                  JUNCTION     0.000    0.162     0  02:25           0        1.28       5.385
  J16                  JUNCTION     0.023    0.023     0  00:00       0.167       0.167       0.705
  J17                  JUNCTION     0.000    0.033     0  00:22           0         0.3       1.903
  J18                  JUNCTION     0.000    0.006     0  00:07           0      0.0416       2.883
  J19                  JUNCTION     0.000    0.132     0  02:44           0       0.807       0.931
  J2                   JUNCTION     0.000    0.011     0  02:44           0      0.0878       2.476
  J3                   JUNCTION     0.000    0.111     0  02:44           0       0.801       3.429
  J4                   JUNCTION     0.000    0.085     0  00:12           0        0.37       1.002
  J5                   JUNCTION     0.719    0.792     0  00:20        1.19        1.56      -0.003
  J6                   JUNCTION     0.000    0.028     0  00:35           0       0.246       1.527
  J7                   JUNCTION     0.000    0.127     0  00:46           0       0.387       1.147
  J8                   JUNCTION     0.898    1.023     0  00:35        2.08        2.47       0.237
  J9                   JUNCTION     0.000    0.075     0  01:02           0       0.597       3.114
  Out_to_WWTP          OUTFALL      0.000    0.132     0  02:44           0       0.799       0.000
  T1                   STORAGE      0.000    0.161     0  02:27           0        1.21      23.620
  T2                   STORAGE      0.000    3.210     0  00:15           0        4.06      27.190
  T3                   STORAGE      0.000    0.589     0  00:53           0        1.92      39.255
  T4                   STORAGE      0.000    0.790     0  00:21           0        1.56      29.255
  T5                   STORAGE      0.000    0.025     0  00:07           0       0.169      30.799
  T6                   STORAGE      0.000    0.995     0  00:36           0        2.46      51.521
  
  
  **********************
  Node Surcharge Summary
  **********************
  
  Surcharging occurs when water rises above the top of the highest conduit.
  ---------------------------------------------------------------------
                                               Max. Height   Min. Depth
                                   Hours       Above Crown    Below Rim
  Node                 Type      Surcharged         Meters       Meters
  ---------------------------------------------------------------------
  CSO7                 JUNCTION        0.86          0.945        0.000
  CSO9                 JUNCTION        0.53          1.682        0.000
  J4                   JUNCTION        0.81          0.454        1.246
  
  
  *********************
  Node Flooding Summary
  *********************
  
  Flooding refers to all water that overflows a node, whether it ponds or not.
  --------------------------------------------------------------------------
                                                             Total   Maximum
                                 Maximum   Time of Max       Flood    Ponded
                        Hours       Rate    Occurrence      Volume     Depth
  Node                 Flooded       CMS   days hr:min    10^6 ltr    Meters
  --------------------------------------------------------------------------
  CSO7                    0.76     0.429      0  00:21       0.511     0.000
  CSO9                    0.38     0.130      0  00:35       0.074     0.000
  T2                      1.33     2.850      0  00:22       1.925     0.000
  T4                      1.58     0.403      0  00:34       0.465     0.000
  T6                      1.37     0.314      0  01:02       0.431     0.000
  
  
  **********************
  Storage Volume Summary
  **********************
  
  --------------------------------------------------------------------------------------------------
                         Average     Avg  Evap Exfil       Maximum     Max    Time of Max    Maximum
                          Volume    Pcnt  Pcnt  Pcnt        Volume    Pcnt     Occurrence    Outflow
  Storage Unit           1000 m3    Full  Loss  Loss       1000 m3    Full    days hr:min        CMS
  --------------------------------------------------------------------------------------------------
  T1                       0.078      11     0     0         0.172      25       0  02:44      0.132
  T2                       0.899      90     0     0         1.000     100       0  00:22      0.033
  T3                       0.485      19     0     0         0.902      35       0  02:44      0.072
  T4                       0.432      86     0     0         0.500     100       0  00:34      0.028
  T5                       0.027       5     0     0         0.041       8       0  02:44      0.011
  T6                       0.437      73     0     0         0.600     100       0  01:02      0.075
  
  
  ***********************
  Outfall Loading Summary
  ***********************
  
  -----------------------------------------------------------
                         Flow       Avg       Max       Total
                         Freq      Flow      Flow      Volume
  Outfall Node           Pcnt       CMS       CMS    10^6 ltr
  -----------------------------------------------------------
  Out_to_WWTP           97.76     0.078     0.132       0.799
  -----------------------------------------------------------
  System                97.76     0.078     0.132       0.799
  
  
  ********************
  Link Flow Summary
  ********************
  
  -----------------------------------------------------------------------------
                                 Maximum  Time of Max   Maximum    Max/    Max/
                                  |Flow|   Occurrence   |Veloc|    Full    Full
  Link                 Type          CMS  days hr:min     m/sec    Flow   Depth
  -----------------------------------------------------------------------------
  C1                   CONDUIT     0.011     0  02:44      0.95    0.00    0.07
  C10                  CONDUIT     0.995     0  00:36      1.88    0.10    0.61
  C11                  CONDUIT     0.111     0  02:44      1.40    0.01    0.06
  C12                  CONDUIT     0.075     0  02:12      1.07    0.01    0.09
  C13                  CONDUIT     0.589     0  00:53      2.44    0.03    0.46
  C14                  CONDUIT     0.132     0  02:44      1.67    0.01    0.06
  C15                  CONDUIT     0.315     0  00:50      2.67    1.00    0.69
  C16                  CONDUIT     0.303     0  00:52      1.51    0.03    0.12
  C17                  CONDUIT     0.540     0  00:51      2.55    0.03    0.12
  C18                  CONDUIT     3.210     0  00:15      3.85    0.12    0.62
  C19                  CONDUIT     0.033     0  01:14      1.11    0.01    0.11
  C2                   CONDUIT     0.028     0  00:40      1.50    0.03    0.15
  C20                  CONDUIT     0.024     0  00:09      3.22    0.00    0.04
  C21                  CONDUIT     0.006     0  00:07      0.83    0.03    0.10
  C22                  CONDUIT     0.006     0  00:25      0.61    0.00    0.10
  C23                  CONDUIT     0.161     0  02:27      1.40    0.02    0.46
  C3                   CONDUIT     0.072     0  02:44      1.51    0.03    0.11
  C4                   CONDUIT     0.025     0  00:07      3.10    0.01    0.23
  C5                   CONDUIT     0.085     0  00:12      1.73    1.46    1.00
  C6                   CONDUIT     0.076     0  00:15      1.29    1.21    1.00
  C7                   CONDUIT     0.790     0  00:21      2.64    0.19    0.65
  C8                   CONDUIT     0.127     0  00:46      1.94    1.60    0.86
  C9                   CONDUIT     0.127     0  00:46      1.29    0.43    0.55
  V1                   ORIFICE     0.132     0  02:44                      1.00
  V2                   ORIFICE     0.033     0  00:22                      0.24
  V3                   ORIFICE     0.072     0  02:44                      0.65
  V4                   ORIFICE     0.028     0  00:35                      0.35
  V5                   ORIFICE     0.011     0  02:44                      1.00
  V6                   ORIFICE     0.075     0  01:02                      0.43
  
  
  ***************************
  Flow Classification Summary
  ***************************
  
  -------------------------------------------------------------------------------------
                      Adjusted    ---------- Fraction of Time in Flow Class ---------- 
                       /Actual         Up    Down  Sub   Sup   Up    Down  Norm  Inlet 
  Conduit               Length    Dry  Dry   Dry   Crit  Crit  Crit  Crit  Ltd   Ctrl  
  -------------------------------------------------------------------------------------
  C1                      1.00   0.00  0.00  0.00  0.85  0.15  0.00  0.00  0.90  0.00
  C10                     1.00   0.00  0.00  0.00  0.87  0.13  0.00  0.00  0.94  0.00
  C11                     1.00   0.00  0.00  0.00  0.16  0.83  0.00  0.00  1.00  0.00
  C12                     1.00   0.00  0.00  0.00  0.65  0.34  0.00  0.00  1.00  0.00
  C13                     1.00   0.00  0.00  0.00  0.69  0.31  0.00  0.00  0.75  0.00
  C14                     1.00   0.02  0.00  0.00  0.02  0.97  0.00  0.00  0.44  0.00
  C15                     1.00   0.00  0.00  0.00  0.00  1.00  0.00  0.00  0.00  0.00
  C16                     1.00   0.00  0.00  0.00  0.23  0.77  0.00  0.00  0.21  0.00
  C17                     1.00   0.00  0.00  0.00  0.14  0.86  0.00  0.00  0.87  0.00
  C18                     1.00   0.00  0.00  0.00  0.92  0.08  0.00  0.00  0.94  0.00
  C19                     1.00   0.00  0.00  0.00  0.68  0.32  0.00  0.00  1.00  0.00
  C2                      1.00   0.01  0.00  0.00  0.02  0.97  0.00  0.00  0.80  0.00
  C20                     1.00   0.00  0.00  0.00  0.84  0.16  0.00  0.00  0.95  0.00
  C21                     1.00   0.00  0.00  0.00  0.00  1.00  0.00  0.00  0.00  0.00
  C22                     1.00   0.00  0.00  0.00  0.94  0.06  0.00  0.00  1.00  0.00
  C23                     1.00   0.00  0.00  0.00  0.77  0.22  0.00  0.00  0.87  0.00
  C3                      1.00   0.01  0.01  0.00  0.19  0.79  0.00  0.00  0.28  0.00
  C4                      1.00   0.00  0.00  0.00  0.90  0.10  0.00  0.00  0.95  0.00
  C5                      1.00   0.00  0.00  0.00  0.94  0.06  0.00  0.00  0.63  0.00
  C6                      1.00   0.00  0.00  0.00  0.46  0.54  0.00  0.00  0.01  0.00
  C7                      1.00   0.00  0.00  0.00  0.91  0.09  0.00  0.00  0.95  0.00
  C8                      1.00   0.00  0.00  0.00  0.26  0.74  0.00  0.00  0.00  0.00
  C9                      1.00   0.00  0.00  0.00  1.00  0.00  0.00  0.00  1.00  0.00
  
  
  *************************
  Conduit Surcharge Summary
  *************************
  
  ----------------------------------------------------------------------------
                                                           Hours        Hours 
                         --------- Hours Full --------   Above Full   Capacity
  Conduit                Both Ends  Upstream  Dnstream   Normal Flow   Limited
  ----------------------------------------------------------------------------
  C10                         0.01      0.01      2.16      0.01         0.01
  C15                         0.01      0.01      0.01      0.01         0.01
  C18                         0.01      0.01      2.48      0.01         0.01
  C5                          0.80      0.86      0.90      0.85         0.78
  C6                          0.01      0.81      0.01      0.75         0.01
  C7                          0.01      0.01      2.47      0.01         0.01
  C8                          0.01      0.53      0.01      0.55         0.01
  

  Analysis begun on:  Sun Jul 17 21:04:31 2022
  Analysis ended on:  Sun Jul 17 21:04:31 2022
  Total elapsed time: < 1 sec