
  EPA STORM WATER MANAGEMENT MODEL - VERSION 5.1 (Build 5.3.0.dev0)
  --------------------------------------------------------------

  
  *********************************************************
  NOTE: The summary statistics displayed in this report are
  based on results found at every computational time step,  
  not just on results from each reporting time step.
  *********************************************************
  
  ****************
  Analysis Options
  ****************
  Flow Units ............... CMS
  Process Models:
    Rainfall/Runoff ........ YES
    RDII ................... NO
    Snowmelt ............... NO
    Groundwater ............ NO
    Flow Routing ........... YES
    Ponding Allowed ........ NO
    Water Quality .......... NO
  Infiltration Method ...... HORTON
  Flow Routing Method ...... DYNWAVE
  Surcharge Method ......... EXTRAN
  Starting Date ............ 02/04/2007 10:35:00
  Ending Date .............. 02/05/2007 00:40:00
  Antecedent Dry Days ...... 0.0
  Report Time Step ......... 00:05:00
  Wet Time Step ............ 00:05:00
  Dry Time Step ............ 01:00:00
  Routing Time Step ........ 30.00 sec
  Variable Time Step ....... YES
  Maximum Trials ........... 8
  Number of Threads ........ 1
  Head Tolerance ........... 0.001500 m
  
  
  **************************        Volume         Depth
  Runoff Quantity Continuity     hectare-m            mm
  **************************     ---------       -------
  Total Precipitation ......         1.056         5.860
  Evaporation Loss .........         0.000         0.000
  Infiltration Loss ........         0.000         0.000
  Surface Runoff ...........         1.035         5.742
  Final Storage ............         0.023         0.126
  Continuity Error (%) .....        -0.122
  
  
  **************************        Volume        Volume
  Flow Routing Continuity        hectare-m      10^6 ltr
  **************************     ---------     ---------
  Dry Weather Inflow .......         0.495         4.954
  Wet Weather Inflow .......         1.034        10.344
  Groundwater Inflow .......         0.000         0.000
  RDII Inflow ..............         0.000         0.000
  External Inflow ..........         0.000         0.000
  External Outflow .........         0.940         9.401
  Flooding Loss ............         0.008         0.083
  Evaporation Loss .........         0.000         0.000
  Exfiltration Loss ........         0.000         0.000
  Initial Stored Volume ....         0.000         0.000
  Final Stored Volume ......         0.500         4.997
  Continuity Error (%) .....         5.339
  
  
  *************************
  Highest Continuity Errors
  *************************
  Node T2 (24.70%)
  Node T3 (14.26%)
  Node T4 (12.81%)
  Node T6 (12.01%)
  Node T5 (11.09%)
  
  
  ***************************
  Time-Step Critical Elements
  ***************************
  Link C15 (32.03%)
  
  
  ********************************
  Highest Flow Instability Indexes
  ********************************
  Link C15 (2)
  Link C20 (2)
  Link C18 (2)
  Link C4 (1)
  
  
  *************************
  Routing Time Step Summary
  *************************
  Minimum Time Step           :     0.13 sec
  Average Time Step           :    28.24 sec
  Maximum Time Step           :    30.00 sec
  Percent in Steady State     :     3.31
  Average Iterations per Step :     2.01
  Percent Not Converging      :     0.00
  
  
  ***************************
  Subcatchment Runoff Summary
  ***************************
  
  ------------------------------------------------------------------------------------------------------------------------------
                            Total      Total      Total      Total     Imperv       Perv      Total       Total     Peak  Runoff
                           Precip      Runon       Evap      Infil     Runoff     Runoff     Runoff      Runoff   Runoff   Coeff
  Subcatchment                 mm         mm         mm         mm         mm         mm         mm    10^6 ltr      CMS
  ------------------------------------------------------------------------------------------------------------------------------
  SC01                       5.52       0.00       0.00       0.00       5.44       0.00       5.44        1.79     0.20   0.985
  SC010                      5.52       0.00       0.00       0.00       5.41       0.00       5.41        0.64     0.06   0.981
  SC02                       5.66       0.00       0.00       0.00       5.58       0.00       5.58        1.27     0.13   0.985
  SC03                       5.96       0.00       0.00       0.00       5.90       0.00       5.90        1.06     0.13   0.990
  SC04                       5.66       0.00       0.00       0.00       5.48       0.00       5.48        0.38     0.03   0.969
  SC05                       5.52       0.00       0.00       0.00       5.43       0.00       5.43        0.85     0.09   0.984
  SC06                       6.44       0.00       0.00       0.00       6.22       0.00       6.22        2.02     0.13   0.966
  SC07                       5.66       0.00       0.00       0.00       5.48       0.00       5.48        0.26     0.02   0.969
  SC08                       5.96       0.00       0.00       0.00       5.86       0.00       5.86        1.64     0.15   0.983
  SC09                       6.44       0.00       0.00       0.00       6.30       0.00       6.30        0.43     0.04   0.978
  
  
  ******************
  Node Depth Summary
  ******************
  
  ---------------------------------------------------------------------------------
                                 Average  Maximum  Maximum  Time of Max    Reported
                                   Depth    Depth      HGL   Occurrence   Max Depth
  Node                 Type       Meters   Meters   Meters  days hr:min      Meters
  ---------------------------------------------------------------------------------
  CSO10                JUNCTION     0.09     0.20    30.20     0  07:55        0.20
  CSO7                 JUNCTION     0.08     0.12    34.12     0  07:51        0.12
  CSO8                 JUNCTION     0.10     0.23    32.23     0  08:00        0.23
  CSO9                 JUNCTION     0.09     0.17    40.17     0  07:50        0.17
  J1                   JUNCTION     0.06     0.11    34.11     0  07:55        0.11
  J10                  JUNCTION     0.08     0.16    29.16     0  08:03        0.16
  J11                  JUNCTION     0.08     0.17    31.17     0  08:04        0.17
  J12                  JUNCTION     0.12     0.19    26.19     0  08:06        0.19
  J13                  JUNCTION     0.05     0.10    29.10     0  07:51        0.10
  J14                  JUNCTION     0.12     0.14    20.14     0  09:51        0.14
  J15                  JUNCTION     0.15     0.22    15.22     0  07:57        0.22
  J16                  JUNCTION     0.06     0.12    30.12     0  07:55        0.12
  J17                  JUNCTION     0.06     0.07    20.07     0  10:39        0.07
  J18                  JUNCTION     0.05     0.09    29.09     0  07:56        0.09
  J19                  JUNCTION     0.14     0.16     8.16     0  08:56        0.16
  J2                   JUNCTION     0.06     0.07    25.07     0  09:01        0.07
  J3                   JUNCTION     0.11     0.12    18.12     0  09:35        0.12
  J4                   JUNCTION     0.10     0.14    33.14     0  02:57        0.14
  J5                   JUNCTION     0.05     0.08    32.08     0  07:56        0.08
  J6                   JUNCTION     0.06     0.06    25.06     0  09:37        0.06
  J7                   JUNCTION     0.07     0.12    39.12     0  07:55        0.12
  J8                   JUNCTION     0.09     0.14    36.14     0  02:55        0.14
  J9                   JUNCTION     0.10     0.11    29.11     0  09:20        0.11
  Out_to_WWTP          OUTFALL      0.14     0.16     6.16     0  08:57        0.16
  T1                   STORAGE      2.61     4.15    14.15     0  08:56        4.15
  T2                   STORAGE      1.79     2.72    23.72     0  10:36        2.72
  T3                   STORAGE      2.26     3.49    25.49     0  09:47        3.49
  T4                   STORAGE      1.86     2.78    29.78     0  09:35        2.78
  T5                   STORAGE      2.04     3.03    30.03     0  08:59        3.03
  T6                   STORAGE      3.42     5.00    36.00     0  08:27        5.00
  
  
  *******************
  Node Inflow Summary
  *******************
  
  -------------------------------------------------------------------------------------------------
                                  Maximum  Maximum                  Lateral       Total        Flow
                                  Lateral    Total  Time of Max      Inflow      Inflow     Balance
                                   Inflow   Inflow   Occurrence      Volume      Volume       Error
  Node                 Type           CMS      CMS  days hr:min    10^6 ltr    10^6 ltr     Percent
  -------------------------------------------------------------------------------------------------
  CSO10                JUNCTION     0.066    0.066     0  07:55       0.813       0.815      -0.025
  CSO7                 JUNCTION     0.026    0.026     0  07:50       0.631       0.632       0.010
  CSO8                 JUNCTION     0.152    0.152     0  08:00        1.92        1.92      -0.007
  CSO9                 JUNCTION     0.041    0.041     0  07:50       0.685       0.686      -0.002
  J1                   JUNCTION     0.104    0.104     0  07:55        1.56        1.57      -0.146
  J10                  JUNCTION     0.135    0.275     0  08:01        1.55        3.48      -0.066
  J11                  JUNCTION     0.000    0.152     0  08:00           0        1.92      -0.034
  J12                  JUNCTION     0.000    0.344     0  08:03           0         6.5       0.202
  J13                  JUNCTION     0.145    0.145     0  07:50        1.87        1.87      -0.344
  J14                  JUNCTION     0.000    0.103     0  09:47           0        3.97       0.159
  J15                  JUNCTION     0.000    0.432     0  07:55           0        10.3       0.614
  J16                  JUNCTION     0.211    0.211     0  07:55         2.5        2.51      -0.136
  J17                  JUNCTION     0.000    0.024     0  10:37           0        0.97       0.493
  J18                  JUNCTION     0.000    0.066     0  07:55           0       0.815      -0.123
  J19                  JUNCTION     0.000    0.246     0  08:56           0        9.41       0.104
  J2                   JUNCTION     0.000    0.031     0  09:00           0        1.23       0.296
  J3                   JUNCTION     0.000    0.154     0  09:33           0        6.02       0.515
  J4                   JUNCTION     0.000    0.026     0  07:51           0       0.632       0.133
  J5                   JUNCTION     0.030    0.054     0  07:55       0.541        1.17      -0.092
  J6                   JUNCTION     0.000    0.021     0  09:35           0       0.836       0.344
  J7                   JUNCTION     0.000    0.041     0  07:51           0       0.686       0.104
  J8                   JUNCTION     0.155    0.189     0  02:55        3.23        3.91      -0.095
  J9                   JUNCTION     0.000    0.075     0  08:28           0        3.04       0.485
  Out_to_WWTP          OUTFALL      0.000    0.246     0  08:57           0         9.4       0.000
  T1                   STORAGE      0.000    0.420     0  07:57           0        10.2       4.528
  T2                   STORAGE      0.000    0.142     0  07:51           0        1.87      32.804
  T3                   STORAGE      0.000    0.336     0  08:07           0        6.49      16.635
  T4                   STORAGE      0.000    0.054     0  07:56           0        1.17      14.694
  T5                   STORAGE      0.000    0.104     0  07:55           0        1.57      12.474
  T6                   STORAGE      0.000    0.189     0  02:55           0        3.92      13.654
  
  
  **********************
  Node Surcharge Summary
  **********************
  
  No nodes were surcharged.
  
  
  *********************
  Node Flooding Summary
  *********************
  
  Flooding refers to all water that overflows a node, whether it ponds or not.
  --------------------------------------------------------------------------
                                                             Total   Maximum
                                 Maximum   Time of Max       Flood    Ponded
                        Hours       Rate    Occurrence      Volume     Depth
  Node                 Flooded       CMS   days hr:min    10^6 ltr    Meters
  --------------------------------------------------------------------------
  T6                      0.89     0.069      0  08:27       0.083     0.000
  
  
  **********************
  Storage Volume Summary
  **********************
  
  --------------------------------------------------------------------------------------------------
                         Average     Avg  Evap Exfil       Maximum     Max    Time of Max    Maximum
                          Volume    Pcnt  Pcnt  Pcnt        Volume    Pcnt     Occurrence    Outflow
  Storage Unit           1000 m3    Full  Loss  Loss       1000 m3    Full    days hr:min        CMS
  --------------------------------------------------------------------------------------------------
  T1                       0.366      52     0     0         0.581      83       0  08:56      0.246
  T2                       0.359      36     0     0         0.544      54       0  10:36      0.024
  T3                       1.176      45     0     0         1.813      70       0  09:47      0.103
  T4                       0.186      37     0     0         0.278      56       0  09:35      0.021
  T5                       0.204      41     0     0         0.303      61       0  08:59      0.031
  T6                       0.411      68     0     0         0.600     100       0  08:27      0.075
  
  
  ***********************
  Outfall Loading Summary
  ***********************
  
  -----------------------------------------------------------
                         Flow       Avg       Max       Total
                         Freq      Flow      Flow      Volume
  Outfall Node           Pcnt       CMS       CMS    10^6 ltr
  -----------------------------------------------------------
  Out_to_WWTP           99.50     0.186     0.246       9.401
  -----------------------------------------------------------
  System                99.50     0.186     0.246       9.401
  
  
  ********************
  Link Flow Summary
  ********************
  
  -----------------------------------------------------------------------------
                                 Maximum  Time of Max   Maximum    Max/    Max/
                                  |Flow|   Occurrence   |Veloc|    Full    Full
  Link                 Type          CMS  days hr:min     m/sec    Flow   Depth
  -----------------------------------------------------------------------------
  C1                   CONDUIT     0.031     0  09:01      0.95    0.01    0.10
  C10                  CONDUIT     0.189     0  02:55      1.75    0.02    0.55
  C11                  CONDUIT     0.154     0  09:36      1.61    0.01    0.08
  C12                  CONDUIT     0.075     0  09:21      1.13    0.01    0.08
  C13                  CONDUIT     0.336     0  08:07      1.49    0.02    0.55
  C14                  CONDUIT     0.246     0  08:57      2.02    0.01    0.08
  C15                  CONDUIT     0.152     0  08:00      2.25    0.48    0.44
  C16                  CONDUIT     0.148     0  08:04      1.20    0.01    0.08
  C17                  CONDUIT     0.273     0  08:03      2.00    0.01    0.09
  C18                  CONDUIT     0.142     0  07:51      4.80    0.01    0.53
  C19                  CONDUIT     0.024     0  10:39      0.53    0.01    0.14
  C2                   CONDUIT     0.021     0  09:37      0.74    0.02    0.16
  C20                  CONDUIT     0.210     0  07:55      3.28    0.01    0.08
  C21                  CONDUIT     0.066     0  07:55      1.45    0.38    0.34
  C22                  CONDUIT     0.065     0  07:56      0.93    0.03    0.20
  C23                  CONDUIT     0.420     0  07:57      1.31    0.05    0.57
  C3                   CONDUIT     0.103     0  09:48      1.69    0.04    0.13
  C4                   CONDUIT     0.104     0  07:55      3.15    0.03    0.55
  C5                   CONDUIT     0.026     0  07:51      1.30    0.44    0.51
  C6                   CONDUIT     0.025     0  02:57      1.07    0.40    0.37
  C7                   CONDUIT     0.054     0  07:56      1.52    0.01    0.54
  C8                   CONDUIT     0.041     0  07:51      1.18    0.52    0.45
  C9                   CONDUIT     0.038     0  07:55      0.91    0.13    0.27
  V1                   ORIFICE     0.246     0  08:56                      1.00
  V2                   ORIFICE     0.024     0  10:37                      0.24
  V3                   ORIFICE     0.103     0  09:47                      0.65
  V4                   ORIFICE     0.021     0  09:35                      0.35
  V5                   ORIFICE     0.031     0  09:00                      1.00
  V6                   ORIFICE     0.075     0  08:28                      0.43
  
  
  ***************************
  Flow Classification Summary
  ***************************
  
  -------------------------------------------------------------------------------------
                      Adjusted    ---------- Fraction of Time in Flow Class ---------- 
                       /Actual         Up    Down  Sub   Sup   Up    Down  Norm  Inlet 
  Conduit               Length    Dry  Dry   Dry   Crit  Crit  Crit  Crit  Ltd   Ctrl  
  -------------------------------------------------------------------------------------
  C1                      1.00   0.00  0.00  0.00  0.62  0.38  0.00  0.00  0.97  0.00
  C10                     1.00   0.00  0.00  0.00  0.98  0.02  0.00  0.00  0.99  0.00
  C11                     1.00   0.00  0.00  0.00  0.19  0.81  0.00  0.00  1.00  0.00
  C12                     1.00   0.00  0.00  0.00  0.47  0.53  0.00  0.00  0.72  0.00
  C13                     1.00   0.00  0.00  0.00  0.93  0.07  0.00  0.00  0.95  0.00
  C14                     1.00   0.00  0.00  0.00  0.01  0.99  0.00  0.00  0.56  0.00
  C15                     1.00   0.00  0.00  0.00  0.00  1.00  0.00  0.00  0.00  0.00
  C16                     1.00   0.00  0.00  0.00  0.43  0.57  0.00  0.00  0.45  0.00
  C17                     1.00   0.00  0.00  0.00  0.38  0.62  0.00  0.00  0.98  0.00
  C18                     1.00   0.00  0.00  0.00  0.97  0.03  0.00  0.00  0.99  0.00
  C19                     1.00   0.00  0.00  0.00  1.00  0.00  0.00  0.00  1.00  0.00
  C2                      1.00   0.00  0.00  0.00  0.89  0.10  0.00  0.00  0.98  0.00
  C20                     1.00   0.00  0.00  0.00  0.57  0.43  0.00  0.00  0.99  0.00
  C21                     1.00   0.00  0.00  0.00  0.00  1.00  0.00  0.00  0.00  0.00
  C22                     1.00   0.00  0.00  0.00  0.99  0.01  0.00  0.00  1.00  0.00
  C23                     1.00   0.00  0.00  0.00  0.95  0.05  0.00  0.00  0.97  0.00
  C3                      1.00   0.00  0.00  0.00  0.03  0.97  0.00  0.00  0.09  0.00
  C4                      1.00   0.00  0.00  0.00  0.98  0.02  0.00  0.00  0.99  0.00
  C5                      1.00   0.00  0.00  0.00  0.93  0.07  0.00  0.00  0.99  0.00
  C6                      1.00   0.00  0.00  0.00  0.01  0.99  0.00  0.00  0.00  0.00
  C7                      1.00   0.00  0.00  0.00  0.97  0.03  0.00  0.00  0.98  0.00
  C8                      1.00   0.00  0.00  0.00  0.16  0.84  0.00  0.00  0.00  0.00
  C9                      1.00   0.00  0.00  0.00  1.00  0.00  0.00  0.00  1.00  0.00
  
  
  *************************
  Conduit Surcharge Summary
  *************************
  
  ----------------------------------------------------------------------------
                                                           Hours        Hours 
                         --------- Hours Full --------   Above Full   Capacity
  Conduit                Both Ends  Upstream  Dnstream   Normal Flow   Limited
  ----------------------------------------------------------------------------
  C10                         0.01      0.01     11.83      0.01         0.01
  C13                         0.01      0.01      9.44      0.01         0.01
  C18                         0.01      0.01      6.27      0.01         0.01
  C23                         0.01      0.01     11.46      0.01         0.01
  C4                          0.01      0.01     11.93      0.01         0.01
  C7                          0.01      0.01     11.54      0.01         0.01
  

  Analysis begun on:  Sun Jul 17 19:36:53 2022
  Analysis ended on:  Sun Jul 17 19:36:53 2022
  Total elapsed time: < 1 sec