
  EPA STORM WATER MANAGEMENT MODEL - VERSION 5.1 (Build 5.3.0.dev0)
  --------------------------------------------------------------

  
  *********************************************************
  NOTE: The summary statistics displayed in this report are
  based on results found at every computational time step,  
  not just on results from each reporting time step.
  *********************************************************
  
  ****************
  Analysis Options
  ****************
  Flow Units ............... CMS
  Process Models:
    Rainfall/Runoff ........ YES
    RDII ................... NO
    Snowmelt ............... NO
    Groundwater ............ NO
    Flow Routing ........... YES
    Ponding Allowed ........ NO
    Water Quality .......... NO
  Infiltration Method ...... HORTON
  Flow Routing Method ...... DYNWAVE
  Surcharge Method ......... EXTRAN
  Starting Date ............ 01/18/2009 00:20:00
  Ending Date .............. 01/18/2009 19:30:00
  Antecedent Dry Days ...... 0.0
  Report Time Step ......... 00:05:00
  Wet Time Step ............ 00:05:00
  Dry Time Step ............ 01:00:00
  Routing Time Step ........ 30.00 sec
  Variable Time Step ....... YES
  Maximum Trials ........... 8
  Number of Threads ........ 1
  Head Tolerance ........... 0.001500 m
  
  
  **************************        Volume         Depth
  Runoff Quantity Continuity     hectare-m            mm
  **************************     ---------       -------
  Total Precipitation ......         2.247        12.467
  Evaporation Loss .........         0.000         0.000
  Infiltration Loss ........         0.000         0.000
  Surface Runoff ...........         2.213        12.279
  Final Storage ............         0.035         0.194
  Continuity Error (%) .....        -0.046
  
  
  **************************        Volume        Volume
  Flow Routing Continuity        hectare-m      10^6 ltr
  **************************     ---------     ---------
  Dry Weather Inflow .......         0.674         6.741
  Wet Weather Inflow .......         2.212        22.123
  Groundwater Inflow .......         0.000         0.000
  RDII Inflow ..............         0.000         0.000
  External Inflow ..........         0.000         0.000
  External Outflow .........         1.523        15.234
  Flooding Loss ............         0.259         2.590
  Evaporation Loss .........         0.000         0.000
  Exfiltration Loss ........         0.000         0.000
  Initial Stored Volume ....         0.000         0.000
  Final Stored Volume ......         0.823         8.233
  Continuity Error (%) .....         9.726
  
  
  *************************
  Highest Continuity Errors
  *************************
  Node T2 (26.08%)
  Node T6 (13.30%)
  Node T5 (12.90%)
  Node T3 (11.78%)
  Node T4 (10.09%)
  
  
  ***************************
  Time-Step Critical Elements
  ***************************
  Link C15 (60.36%)
  
  
  ********************************
  Highest Flow Instability Indexes
  ********************************
  Link C13 (7)
  Link C15 (4)
  Link C20 (4)
  Link C23 (4)
  Link C18 (3)
  
  
  *************************
  Routing Time Step Summary
  *************************
  Minimum Time Step           :     0.03 sec
  Average Time Step           :    27.05 sec
  Maximum Time Step           :    30.00 sec
  Percent in Steady State     :    14.82
  Average Iterations per Step :     2.01
  Percent Not Converging      :     0.00
  
  
  ***************************
  Subcatchment Runoff Summary
  ***************************
  
  ------------------------------------------------------------------------------------------------------------------------------
                            Total      Total      Total      Total     Imperv       Perv      Total       Total     Peak  Runoff
                           Precip      Runon       Evap      Infil     Runoff     Runoff     Runoff      Runoff   Runoff   Coeff
  Subcatchment                 mm         mm         mm         mm         mm         mm         mm    10^6 ltr      CMS
  ------------------------------------------------------------------------------------------------------------------------------
  SC01                      12.78       0.00       0.00       0.00      12.66       0.00      12.66        4.18     0.12   0.990
  SC010                     12.78       0.00       0.00       0.00      12.61       0.00      12.61        1.48     0.04   0.987
  SC02                      12.77       0.00       0.00       0.00      12.67       0.00      12.67        2.88     0.09   0.992
  SC03                      12.00       0.00       0.00       0.00      11.93       0.00      11.93        2.15     0.07   0.994
  SC04                      12.77       0.00       0.00       0.00      12.57       0.00      12.57        0.87     0.03   0.984
  SC05                      12.78       0.00       0.00       0.00      12.65       0.00      12.65        1.97     0.06   0.989
  SC06                      12.27       0.00       0.00       0.00      11.83       0.00      11.83        3.85     0.14   0.964
  SC07                      12.77       0.00       0.00       0.00      12.57       0.00      12.57        0.60     0.02   0.984
  SC08                      12.00       0.00       0.00       0.00      11.87       0.00      11.87        3.32     0.10   0.989
  SC09                      12.27       0.00       0.00       0.00      12.01       0.00      12.01        0.83     0.04   0.979
  
  
  ******************
  Node Depth Summary
  ******************
  
  ---------------------------------------------------------------------------------
                                 Average  Maximum  Maximum  Time of Max    Reported
                                   Depth    Depth      HGL   Occurrence   Max Depth
  Node                 Type       Meters   Meters   Meters  days hr:min      Meters
  ---------------------------------------------------------------------------------
  CSO10                JUNCTION     0.12     0.17    30.17     0  06:10        0.17
  CSO7                 JUNCTION     0.09     0.12    34.12     0  10:20        0.12
  CSO8                 JUNCTION     0.13     0.19    32.19     0  06:00        0.19
  CSO9                 JUNCTION     0.10     0.17    40.17     0  16:46        0.17
  J1                   JUNCTION     0.07     0.09    34.09     0  06:11        0.09
  J10                  JUNCTION     0.10     0.14    29.14     0  06:02        0.14
  J11                  JUNCTION     0.10     0.15    31.15     0  06:02        0.15
  J12                  JUNCTION     0.51     1.01    27.01     0  12:41        1.01
  J13                  JUNCTION     0.06     0.09    29.09     0  04:46        0.09
  J14                  JUNCTION     0.12     0.19    20.19     0  15:07        0.19
  J15                  JUNCTION     0.17     0.22    15.22     0  11:30        0.22
  J16                  JUNCTION     0.07     0.09    30.09     0  06:10        0.09
  J17                  JUNCTION     0.06     0.15    20.15     0  12:41        0.15
  J18                  JUNCTION     0.06     0.08    29.08     0  06:12        0.08
  J19                  JUNCTION     0.15     0.17     8.17     0  06:22        0.17
  J2                   JUNCTION     0.07     0.08    25.08     0  13:40        0.08
  J3                   JUNCTION     0.11     0.17    18.17     0  14:10        0.17
  J4                   JUNCTION     0.11     0.14    33.14     0  10:21        0.14
  J5                   JUNCTION     0.06     0.08    32.08     0  06:05        0.08
  J6                   JUNCTION     0.06     0.12    25.12     0  14:08        0.12
  J7                   JUNCTION     0.08     0.12    39.12     0  16:53        0.12
  J8                   JUNCTION     0.10     0.15    36.15     0  16:54        0.15
  J9                   JUNCTION     0.10     0.16    29.16     0  17:25        0.16
  Out_to_WWTP          OUTFALL      0.15     0.17     6.17     0  10:44        0.17
  T1                   STORAGE      3.85     5.00    15.00     0  06:22        5.00
  T2                   STORAGE      3.12     5.00    26.00     0  12:02        5.00
  T3                   STORAGE      3.27     5.00    27.00     0  12:05        5.00
  T4                   STORAGE      3.29     5.00    32.00     0  10:59        5.00
  T5                   STORAGE      3.33     5.00    32.00     0  12:02        5.00
  T6                   STORAGE      2.95     4.91    35.91     0  19:10        4.91
  
  
  *******************
  Node Inflow Summary
  *******************
  
  -------------------------------------------------------------------------------------------------
                                  Maximum  Maximum                  Lateral       Total        Flow
                                  Lateral    Total  Time of Max      Inflow      Inflow     Balance
                                   Inflow   Inflow   Occurrence      Volume      Volume       Error
  Node                 Type           CMS      CMS  days hr:min    10^6 ltr    10^6 ltr     Percent
  -------------------------------------------------------------------------------------------------
  CSO10                JUNCTION     0.047    0.047     0  06:10        1.72        1.72       0.188
  CSO7                 JUNCTION     0.025    0.025     0  10:20         1.1         1.1       0.119
  CSO8                 JUNCTION     0.113    0.113     0  06:00        3.77        3.79      -0.171
  CSO9                 JUNCTION     0.040    0.040     0  16:45        1.17        1.16       0.350
  J1                   JUNCTION     0.073    0.073     0  06:10        2.94        2.93       0.159
  J10                  JUNCTION     0.077    0.189     0  06:00        2.81        6.62      -0.259
  J11                  JUNCTION     0.000    0.113     0  06:00           0        3.79      -0.059
  J12                  JUNCTION     0.000    0.303     0  08:00           0        11.8       9.741
  J13                  JUNCTION     0.099    0.099     0  04:45        3.69        3.69       0.501
  J14                  JUNCTION     0.000    0.190     0  14:09           0        6.29      -0.770
  J15                  JUNCTION     0.000    0.463     0  11:40           0        18.1      -0.147
  J16                  JUNCTION     0.138    0.138     0  06:10        5.13        5.12       0.258
  J17                  JUNCTION     0.000    0.140     0  12:25           0         1.6       7.130
  J18                  JUNCTION     0.000    0.047     0  06:10           0        1.71      -0.283
  J19                  JUNCTION     0.000    0.271     0  06:22           0        15.2       0.078
  J2                   JUNCTION     0.000    0.039     0  12:03           0        2.06       0.260
  J3                   JUNCTION     0.000    0.308     0  14:06           0         9.7      -0.868
  J4                   JUNCTION     0.000    0.025     0  10:20           0         1.1       0.220
  J5                   JUNCTION     0.029    0.054     0  06:05        1.09        2.18       0.156
  J6                   JUNCTION     0.000    0.080     0  13:45           0        1.35       3.187
  J7                   JUNCTION     0.000    0.041     0  16:47           0        1.16       0.338
  J8                   JUNCTION     0.161    0.200     0  16:52        5.46         6.6       0.340
  J9                   JUNCTION     0.000    0.170     0  17:12           0        5.12      -1.427
  Out_to_WWTP          OUTFALL      0.000    0.271     0  06:23           0        15.2       0.000
  T1                   STORAGE      0.000    0.438     0  11:30           0        18.1       4.020
  T2                   STORAGE      0.000    0.099     0  04:46           0        3.67      35.286
  T3                   STORAGE      0.000    0.328     0  12:44           0        10.8      13.351
  T4                   STORAGE      0.000    0.054     0  05:57           0        2.18      11.226
  T5                   STORAGE      0.000    0.072     0  06:11           0        2.93      14.813
  T6                   STORAGE      0.000    0.200     0  16:54           0        6.58      15.340
  
  
  **********************
  Node Surcharge Summary
  **********************
  
  No nodes were surcharged.
  
  
  *********************
  Node Flooding Summary
  *********************
  
  Flooding refers to all water that overflows a node, whether it ponds or not.
  --------------------------------------------------------------------------
                                                             Total   Maximum
                                 Maximum   Time of Max       Flood    Ponded
                        Hours       Rate    Occurrence      Volume     Depth
  Node                 Flooded       CMS   days hr:min    10^6 ltr    Meters
  --------------------------------------------------------------------------
  T1                      6.83     0.167      0  11:30       1.584     0.000
  T2                      2.49     0.043      0  12:05       0.118     0.000
  T3                      3.20     0.205      0  12:44       0.696     0.000
  T4                      2.76     0.023      0  13:22       0.125     0.000
  T5                      2.16     0.016      0  12:02       0.067     0.000
  
  
  **********************
  Storage Volume Summary
  **********************
  
  --------------------------------------------------------------------------------------------------
                         Average     Avg  Evap Exfil       Maximum     Max    Time of Max    Maximum
                          Volume    Pcnt  Pcnt  Pcnt        Volume    Pcnt     Occurrence    Outflow
  Storage Unit           1000 m3    Full  Loss  Loss       1000 m3    Full    days hr:min        CMS
  --------------------------------------------------------------------------------------------------
  T1                       0.540      77     0     0         0.700     100       0  06:22      0.271
  T2                       0.624      62     0     0         1.000     100       0  12:02      0.140
  T3                       1.700      65     0     0         2.600     100       0  12:05      0.190
  T4                       0.329      66     0     0         0.500     100       0  10:59      0.080
  T5                       0.333      67     0     0         0.500     100       0  12:02      0.039
  T6                       0.354      59     0     0         0.590      98       0  19:10      0.170
  
  
  ***********************
  Outfall Loading Summary
  ***********************
  
  -----------------------------------------------------------
                         Flow       Avg       Max       Total
                         Freq      Flow      Flow      Volume
  Outfall Node           Pcnt       CMS       CMS    10^6 ltr
  -----------------------------------------------------------
  Out_to_WWTP           99.17     0.224     0.271      15.234
  -----------------------------------------------------------
  System                99.17     0.224     0.271      15.234
  
  
  ********************
  Link Flow Summary
  ********************
  
  -----------------------------------------------------------------------------
                                 Maximum  Time of Max   Maximum    Max/    Max/
                                  |Flow|   Occurrence   |Veloc|    Full    Full
  Link                 Type          CMS  days hr:min     m/sec    Flow   Depth
  -----------------------------------------------------------------------------
  C1                   CONDUIT     0.039     0  13:41      1.04    0.01    0.12
  C10                  CONDUIT     0.200     0  16:54      2.35    0.02    0.55
  C11                  CONDUIT     0.305     0  14:10      2.11    0.02    0.09
  C12                  CONDUIT     0.170     0  17:25      1.29    0.01    0.29
  C13                  CONDUIT     0.328     0  12:44      1.03    0.02    0.75
  C14                  CONDUIT     0.271     0  06:23      2.08    0.02    0.09
  C15                  CONDUIT     0.113     0  06:00      2.03    0.36    0.38
  C16                  CONDUIT     0.112     0  06:03      1.13    0.01    0.07
  C17                  CONDUIT     0.188     0  06:03      1.82    0.01    0.28
  C18                  CONDUIT     0.099     0  04:46      1.00    0.00    0.52
  C19                  CONDUIT     0.139     0  12:41      1.44    0.05    0.19
  C2                   CONDUIT     0.079     0  14:08      1.54    0.09    0.24
  C20                  CONDUIT     0.138     0  06:11      1.39    0.00    0.08
  C21                  CONDUIT     0.047     0  06:10      1.31    0.27    0.28
  C22                  CONDUIT     0.047     0  06:12      0.83    0.02    0.18
  C23                  CONDUIT     0.438     0  11:30      1.03    0.05    0.57
  C3                   CONDUIT     0.192     0  14:05      2.16    0.07    0.18
  C4                   CONDUIT     0.072     0  06:11      1.11    0.02    0.55
  C5                   CONDUIT     0.025     0  10:20      1.24    0.43    0.51
  C6                   CONDUIT     0.025     0  10:21      1.06    0.40    0.37
  C7                   CONDUIT     0.054     0  05:57      0.87    0.01    0.54
  C8                   CONDUIT     0.041     0  16:47      1.74    0.51    0.46
  C9                   CONDUIT     0.040     0  16:53      0.91    0.14    0.27
  V1                   ORIFICE     0.271     0  06:22                      1.00
  V2                   ORIFICE     0.140     0  12:25                      1.00
  V3                   ORIFICE     0.190     0  14:09                      1.00
  V4                   ORIFICE     0.080     0  13:45                      1.00
  V5                   ORIFICE     0.039     0  12:03                      1.00
  V6                   ORIFICE     0.170     0  17:12                      1.00
  
  
  ***************************
  Flow Classification Summary
  ***************************
  
  -------------------------------------------------------------------------------------
                      Adjusted    ---------- Fraction of Time in Flow Class ---------- 
                       /Actual         Up    Down  Sub   Sup   Up    Down  Norm  Inlet 
  Conduit               Length    Dry  Dry   Dry   Crit  Crit  Crit  Crit  Ltd   Ctrl  
  -------------------------------------------------------------------------------------
  C1                      1.00   0.00  0.00  0.00  0.29  0.70  0.00  0.00  0.96  0.00
  C10                     1.00   0.00  0.00  0.00  0.96  0.04  0.00  0.00  0.98  0.00
  C11                     1.00   0.00  0.00  0.00  0.19  0.81  0.00  0.00  1.00  0.00
  C12                     1.00   0.00  0.00  0.00  0.94  0.06  0.00  0.00  1.00  0.00
  C13                     1.00   0.00  0.00  0.00  0.89  0.11  0.00  0.00  0.38  0.00
  C14                     1.00   0.01  0.00  0.00  0.01  0.99  0.00  0.00  0.36  0.00
  C15                     1.00   0.01  0.00  0.00  0.00  0.99  0.00  0.00  0.01  0.00
  C16                     1.00   0.00  0.01  0.00  0.16  0.83  0.00  0.00  0.18  0.00
  C17                     1.00   0.00  0.00  0.00  0.52  0.48  0.00  0.00  0.99  0.00
  C18                     1.00   0.00  0.00  0.00  0.89  0.11  0.00  0.00  0.96  0.00
  C19                     1.00   0.00  0.00  0.00  0.97  0.03  0.00  0.00  1.00  0.00
  C2                      1.00   0.00  0.00  0.00  0.66  0.34  0.00  0.00  1.00  0.00
  C20                     1.00   0.00  0.00  0.00  0.41  0.59  0.00  0.00  0.99  0.00
  C21                     1.00   0.00  0.00  0.00  0.00  1.00  0.00  0.00  0.00  0.00
  C22                     1.00   0.00  0.00  0.00  1.00  0.00  0.00  0.00  1.00  0.00
  C23                     1.00   0.00  0.00  0.00  0.93  0.07  0.00  0.00  0.95  0.00
  C3                      1.00   0.00  0.00  0.00  0.04  0.96  0.00  0.00  0.26  0.00
  C4                      1.00   0.00  0.00  0.00  0.95  0.05  0.00  0.00  0.97  0.00
  C5                      1.00   0.00  0.00  0.00  0.88  0.12  0.00  0.00  0.99  0.00
  C6                      1.00   0.00  0.00  0.00  0.01  0.99  0.00  0.00  0.00  0.00
  C7                      1.00   0.00  0.00  0.00  0.89  0.11  0.00  0.00  0.94  0.00
  C8                      1.00   0.00  0.00  0.00  0.05  0.95  0.00  0.00  0.00  0.00
  C9                      1.00   0.00  0.00  0.00  1.00  0.00  0.00  0.00  1.00  0.00
  
  
  *************************
  Conduit Surcharge Summary
  *************************
  
  ----------------------------------------------------------------------------
                                                           Hours        Hours 
                         --------- Hours Full --------   Above Full   Capacity
  Conduit                Both Ends  Upstream  Dnstream   Normal Flow   Limited
  ----------------------------------------------------------------------------
  C10                         0.01      0.01     13.61      0.01         0.01
  C13                         0.01      0.01     13.73      0.01         0.01
  C18                         0.01      0.01     12.97      0.01         0.01
  C23                         0.01      0.01     15.70      0.01         0.01
  C4                          0.01      0.01     15.54      0.01         0.01
  C7                          0.01      0.01     15.13      0.01         0.01
  

  Analysis begun on:  Sun Jul 17 21:17:51 2022
  Analysis ended on:  Sun Jul 17 21:17:53 2022
  Total elapsed time: 00:00:02