
  EPA STORM WATER MANAGEMENT MODEL - VERSION 5.1 (Build 5.3.0.dev0)
  --------------------------------------------------------------

  
  *********************************************************
  NOTE: The summary statistics displayed in this report are
  based on results found at every computational time step,  
  not just on results from each reporting time step.
  *********************************************************
  
  ****************
  Analysis Options
  ****************
  Flow Units ............... CMS
  Process Models:
    Rainfall/Runoff ........ YES
    RDII ................... NO
    Snowmelt ............... NO
    Groundwater ............ NO
    Flow Routing ........... YES
    Ponding Allowed ........ NO
    Water Quality .......... NO
  Infiltration Method ...... HORTON
  Flow Routing Method ...... DYNWAVE
  Surcharge Method ......... EXTRAN
  Starting Date ............ 12/27/2007 17:45:00
  Ending Date .............. 12/28/2007 04:05:00
  Antecedent Dry Days ...... 0.0
  Report Time Step ......... 00:05:00
  Wet Time Step ............ 00:05:00
  Dry Time Step ............ 01:00:00
  Routing Time Step ........ 30.00 sec
  Variable Time Step ....... YES
  Maximum Trials ........... 8
  Number of Threads ........ 1
  Head Tolerance ........... 0.001500 m
  
  
  **************************        Volume         Depth
  Runoff Quantity Continuity     hectare-m            mm
  **************************     ---------       -------
  Total Precipitation ......         2.336        12.961
  Evaporation Loss .........         0.000         0.000
  Infiltration Loss ........         0.000         0.000
  Surface Runoff ...........         2.314        12.843
  Final Storage ............         0.033         0.185
  Continuity Error (%) .....        -0.520
  
  
  **************************        Volume        Volume
  Flow Routing Continuity        hectare-m      10^6 ltr
  **************************     ---------     ---------
  Dry Weather Inflow .......         0.171         1.714
  Wet Weather Inflow .......         2.314        23.142
  Groundwater Inflow .......         0.000         0.000
  RDII Inflow ..............         0.000         0.000
  External Inflow ..........         0.000         0.000
  External Outflow .........         0.781         7.810
  Flooding Loss ............         0.722         7.223
  Evaporation Loss .........         0.000         0.000
  Exfiltration Loss ........         0.000         0.000
  Initial Stored Volume ....         0.000         0.000
  Final Stored Volume ......         0.744         7.440
  Continuity Error (%) .....         9.590
  
  
  *************************
  Highest Continuity Errors
  *************************
  Node T2 (29.51%)
  Node T4 (21.24%)
  Node T3 (18.47%)
  Node T5 (13.24%)
  Node T6 (13.11%)
  
  
  ***************************
  Time-Step Critical Elements
  ***************************
  Link C15 (41.05%)
  
  
  ********************************
  Highest Flow Instability Indexes
  ********************************
  Link C13 (8)
  Link C15 (2)
  Link C20 (2)
  Link C18 (2)
  Link C5 (2)
  
  
  *************************
  Routing Time Step Summary
  *************************
  Minimum Time Step           :     0.26 sec
  Average Time Step           :    25.55 sec
  Maximum Time Step           :    30.00 sec
  Percent in Steady State     :     7.15
  Average Iterations per Step :     2.54
  Percent Not Converging      :     2.44
  
  
  ***************************
  Subcatchment Runoff Summary
  ***************************
  
  ------------------------------------------------------------------------------------------------------------------------------
                            Total      Total      Total      Total     Imperv       Perv      Total       Total     Peak  Runoff
                           Precip      Runon       Evap      Infil     Runoff     Runoff     Runoff      Runoff   Runoff   Coeff
  Subcatchment                 mm         mm         mm         mm         mm         mm         mm    10^6 ltr      CMS
  ------------------------------------------------------------------------------------------------------------------------------
  SC01                      14.86       0.00       0.00       0.00      14.83       0.00      14.83        4.89     2.03   0.998
  SC010                     14.86       0.00       0.00       0.00      14.77       0.00      14.77        1.74     0.64   0.994
  SC02                      12.01       0.00       0.00       0.00      11.95       0.00      11.95        2.72     1.04   0.995
  SC03                      12.27       0.00       0.00       0.00      12.30       0.00      12.30        2.21     1.14   1.002
  SC04                      12.01       0.00       0.00       0.00      11.76       0.00      11.76        0.81     0.24   0.979
  SC05                      14.86       0.00       0.00       0.00      14.81       0.00      14.81        2.31     0.93   0.997
  SC06                      11.69       0.00       0.00       0.00      11.37       0.00      11.37        3.70     0.81   0.973
  SC07                      12.01       0.00       0.00       0.00      11.76       0.00      11.76        0.56     0.16   0.979
  SC08                      12.27       0.00       0.00       0.00      12.16       0.00      12.16        3.41     1.26   0.991
  SC09                      11.69       0.00       0.00       0.00      11.52       0.00      11.52        0.79     0.20   0.985
  
  
  ******************
  Node Depth Summary
  ******************
  
  ---------------------------------------------------------------------------------
                                 Average  Maximum  Maximum  Time of Max    Reported
                                   Depth    Depth      HGL   Occurrence   Max Depth
  Node                 Type       Meters   Meters   Meters  days hr:min      Meters
  ---------------------------------------------------------------------------------
  CSO10                JUNCTION     0.24     1.00    31.00     0  02:30        1.00
  CSO7                 JUNCTION     0.20     1.20    35.20     0  02:56        1.20
  CSO8                 JUNCTION     0.32     2.00    34.00     0  02:50        2.00
  CSO9                 JUNCTION     0.35     2.00    42.00     0  02:34        2.00
  J1                   JUNCTION     0.09     0.32    34.32     0  03:00        0.32
  J10                  JUNCTION     0.11     0.38    29.38     0  02:56        0.37
  J11                  JUNCTION     0.12     0.30    31.30     0  03:16        0.30
  J12                  JUNCTION     0.34     0.66    26.66     0  08:30        0.66
  J13                  JUNCTION     0.08     0.27    29.27     0  03:05        0.27
  J14                  JUNCTION     0.12     0.15    20.15     0  08:44        0.15
  J15                  JUNCTION     0.20     0.51    15.51     0  03:05        0.51
  J16                  JUNCTION     0.09     0.34    30.34     0  03:00        0.33
  J17                  JUNCTION     0.06     0.08    20.08     0  07:30        0.08
  J18                  JUNCTION     0.07     0.16    29.16     0  03:20        0.16
  J19                  JUNCTION     0.15     0.17     8.17     0  02:58        0.17
  J2                   JUNCTION     0.07     0.08    25.08     0  03:49        0.08
  J3                   JUNCTION     0.11     0.14    18.14     0  07:55        0.14
  J4                   JUNCTION     0.16     0.98    33.98     0  02:59        0.75
  J5                   JUNCTION     0.07     0.19    32.19     0  03:05        0.19
  J6                   JUNCTION     0.06     0.07    25.07     0  04:48        0.07
  J7                   JUNCTION     0.09     0.23    39.23     0  03:14        0.23
  J8                   JUNCTION     0.12     0.32    36.32     0  03:01        0.31
  J9                   JUNCTION     0.09     0.11    29.11     0  04:45        0.11
  Out_to_WWTP          OUTFALL      0.15     0.17     6.17     0  08:32        0.17
  T1                   STORAGE      3.72     5.00    15.00     0  02:57        5.00
  T2                   STORAGE      3.44     5.00    26.00     0  03:56        5.00
  T3                   STORAGE      3.08     4.66    26.66     0  08:25        4.66
  T4                   STORAGE      3.13     4.81    31.81     0  04:46        4.80
  T5                   STORAGE      3.55     5.00    32.00     0  03:02        5.00
  T6                   STORAGE      3.65     5.00    36.00     0  03:03        5.00
  
  
  *******************
  Node Inflow Summary
  *******************
  
  -------------------------------------------------------------------------------------------------
                                  Maximum  Maximum                  Lateral       Total        Flow
                                  Lateral    Total  Time of Max      Inflow      Inflow     Balance
                                   Inflow   Inflow   Occurrence      Volume      Volume       Error
  Node                 Type           CMS      CMS  days hr:min    10^6 ltr    10^6 ltr     Percent
  -------------------------------------------------------------------------------------------------
  CSO10                JUNCTION     0.648    0.648     0  03:00         1.8         1.8      -0.073
  CSO7                 JUNCTION     0.170    0.170     0  03:05       0.694       0.695      -0.102
  CSO8                 JUNCTION     1.257    1.257     0  02:55        3.41        3.41      -0.021
  CSO9                 JUNCTION     0.208    0.208     0  03:00       0.886       0.886      -0.037
  J1                   JUNCTION     0.944    0.944     0  03:00        2.57        2.57      -0.175
  J10                  JUNCTION     1.148    1.629     0  02:55        2.39        5.16      -0.261
  J11                  JUNCTION     0.000    0.487     0  03:15           0        2.77      -0.279
  J12                  JUNCTION     0.000    1.651     0  02:56           0        7.37       6.759
  J13                  JUNCTION     1.056    1.056     0  03:05        2.94        2.94      -0.451
  J14                  JUNCTION     0.000    0.119     0  08:26           0        3.27       0.221
  J15                  JUNCTION     0.000    2.362     0  03:00           0        12.5       0.419
  J16                  JUNCTION     2.045    2.045     0  03:00        5.15        5.15      -0.171
  J17                  JUNCTION     0.000    0.033     0  03:57           0       0.938       0.718
  J18                  JUNCTION     0.000    0.202     0  03:20           0        1.34      -0.380
  J19                  JUNCTION     0.000    0.271     0  02:58           0        7.82       0.152
  J2                   JUNCTION     0.000    0.039     0  03:03           0        1.13       0.439
  J3                   JUNCTION     0.000    0.186     0  07:53           0        5.14       0.737
  J4                   JUNCTION     0.000    0.085     0  02:57           0       0.599      -0.795
  J5                   JUNCTION     0.240    0.313     0  03:05       0.872        1.48      -0.376
  J6                   JUNCTION     0.000    0.028     0  04:47           0       0.763       0.512
  J7                   JUNCTION     0.000    0.127     0  03:14           0       0.828      -0.166
  J8                   JUNCTION     0.835    0.962     0  03:00        4.14        4.97      -0.223
  J9                   JUNCTION     0.000    0.075     0  03:04           0        2.21       0.763
  Out_to_WWTP          OUTFALL      0.000    0.271     0  02:59           0        7.81       0.000
  T1                   STORAGE      0.000    2.257     0  03:05           0        12.5       6.023
  T2                   STORAGE      0.000    1.052     0  03:05           0        2.95      41.860
  T3                   STORAGE      0.000    1.542     0  02:59           0         6.9      22.652
  T4                   STORAGE      0.000    0.311     0  03:05           0        1.48      26.966
  T5                   STORAGE      0.000    0.938     0  03:00           0        2.58      15.255
  T6                   STORAGE      0.000    0.948     0  03:01           0        4.98      15.087
  
  
  **********************
  Node Surcharge Summary
  **********************
  
  Surcharging occurs when water rises above the top of the highest conduit.
  ---------------------------------------------------------------------
                                               Max. Height   Min. Depth
                                   Hours       Above Crown    Below Rim
  Node                 Type      Surcharged         Meters       Meters
  ---------------------------------------------------------------------
  CSO10                JUNCTION        0.89          0.560        0.000
  CSO7                 JUNCTION        0.65          0.945        0.000
  CSO8                 JUNCTION        0.77          1.547        0.000
  CSO9                 JUNCTION        0.90          1.682        0.000
  J4                   JUNCTION        0.63          0.685        1.015
  
  
  *********************
  Node Flooding Summary
  *********************
  
  Flooding refers to all water that overflows a node, whether it ponds or not.
  --------------------------------------------------------------------------
                                                             Total   Maximum
                                 Maximum   Time of Max       Flood    Ponded
                        Hours       Rate    Occurrence      Volume     Depth
  Node                 Flooded       CMS   days hr:min    10^6 ltr    Meters
  --------------------------------------------------------------------------
  CSO10                   0.82     0.445      0  03:00       0.461     0.000
  CSO7                    0.55     0.097      0  03:05       0.097     0.000
  CSO8                    0.43     0.770      0  02:55       0.644     0.000
  CSO9                    0.53     0.080      0  03:00       0.058     0.000
  T1                      3.58     1.986      0  03:05       3.349     0.000
  T2                      2.02     0.097      0  07:01       0.224     0.000
  T5                      1.12     0.882      0  03:02       0.729     0.000
  T6                      2.95     0.837      0  03:03       1.653     0.000
  
  
  **********************
  Storage Volume Summary
  **********************
  
  --------------------------------------------------------------------------------------------------
                         Average     Avg  Evap Exfil       Maximum     Max    Time of Max    Maximum
                          Volume    Pcnt  Pcnt  Pcnt        Volume    Pcnt     Occurrence    Outflow
  Storage Unit           1000 m3    Full  Loss  Loss       1000 m3    Full    days hr:min        CMS
  --------------------------------------------------------------------------------------------------
  T1                       0.521      74     0     0         0.700     100       0  02:57      0.271
  T2                       0.687      69     0     0         1.000     100       0  03:56      0.033
  T3                       1.601      62     0     0         2.422      93       0  08:25      0.123
  T4                       0.313      63     0     0         0.481      96       0  04:46      0.028
  T5                       0.355      71     0     0         0.500     100       0  03:02      0.039
  T6                       0.438      73     0     0         0.600     100       0  03:03      0.075
  
  
  ***********************
  Outfall Loading Summary
  ***********************
  
  -----------------------------------------------------------
                         Flow       Avg       Max       Total
                         Freq      Flow      Flow      Volume
  Outfall Node           Pcnt       CMS       CMS    10^6 ltr
  -----------------------------------------------------------
  Out_to_WWTP           99.24     0.215     0.271       7.810
  -----------------------------------------------------------
  System                99.24     0.215     0.271       7.810
  
  
  ********************
  Link Flow Summary
  ********************
  
  -----------------------------------------------------------------------------
                                 Maximum  Time of Max   Maximum    Max/    Max/
                                  |Flow|   Occurrence   |Veloc|    Full    Full
  Link                 Type          CMS  days hr:min     m/sec    Flow   Depth
  -----------------------------------------------------------------------------
  C1                   CONDUIT     0.039     0  03:49      1.01    0.01    0.11
  C10                  CONDUIT     0.948     0  03:01      1.59    0.10    0.61
  C11                  CONDUIT     0.186     0  07:55      1.71    0.01    0.16
  C12                  CONDUIT     0.075     0  04:45      0.75    0.01    0.19
  C13                  CONDUIT     1.542     0  02:59      1.53    0.09    0.66
  C14                  CONDUIT     0.271     0  02:59      2.08    0.02    0.09
  C15                  CONDUIT     0.487     0  03:15      3.47    1.55    0.83
  C16                  CONDUIT     0.486     0  03:08      1.82    0.05    0.17
  C17                  CONDUIT     1.591     0  02:56      3.81    0.08    0.19
  C18                  CONDUIT     1.052     0  03:05      4.72    0.04    0.57
  C19                  CONDUIT     0.033     0  07:30      0.62    0.01    0.29
  C2                   CONDUIT     0.028     0  04:48      0.85    0.03    0.17
  C20                  CONDUIT     2.028     0  03:00      4.41    0.06    0.21
  C21                  CONDUIT     0.202     0  03:20      1.85    1.16    0.69
  C22                  CONDUIT     0.202     0  03:20      1.65    0.09    0.42
  C23                  CONDUIT     2.257     0  03:05      1.79    0.25    0.67
  C3                   CONDUIT     0.119     0  08:27      1.76    0.05    0.14
  C4                   CONDUIT     0.938     0  03:00      4.05    0.23    0.66
  C5                   CONDUIT     0.085     0  02:57      1.67    1.46    1.00
  C6                   CONDUIT     0.073     0  03:05      1.29    1.16    0.81
  C7                   CONDUIT     0.311     0  03:05      1.38    0.08    0.59
  C8                   CONDUIT     0.127     0  03:14      1.79    1.60    0.86
  C9                   CONDUIT     0.127     0  03:14      1.34    0.43    0.55
  V1                   ORIFICE     0.271     0  02:58                      1.00
  V2                   ORIFICE     0.033     0  03:57                      0.24
  V3                   ORIFICE     0.119     0  08:26                      0.65
  V4                   ORIFICE     0.028     0  04:47                      0.35
  V5                   ORIFICE     0.039     0  03:03                      1.00
  V6                   ORIFICE     0.075     0  03:04                      0.43
  
  
  ***************************
  Flow Classification Summary
  ***************************
  
  -------------------------------------------------------------------------------------
                      Adjusted    ---------- Fraction of Time in Flow Class ---------- 
                       /Actual         Up    Down  Sub   Sup   Up    Down  Norm  Inlet 
  Conduit               Length    Dry  Dry   Dry   Crit  Crit  Crit  Crit  Ltd   Ctrl  
  -------------------------------------------------------------------------------------
  C1                      1.00   0.00  0.00  0.00  0.10  0.90  0.00  0.00  0.96  0.00
  C10                     1.00   0.00  0.00  0.00  0.97  0.03  0.00  0.00  0.98  0.00
  C11                     1.00   0.00  0.00  0.00  0.27  0.73  0.00  0.00  1.00  0.00
  C12                     1.00   0.00  0.00  0.00  0.92  0.08  0.00  0.00  1.00  0.00
  C13                     1.00   0.00  0.00  0.00  0.92  0.08  0.00  0.00  0.30  0.00
  C14                     1.00   0.01  0.00  0.00  0.01  0.99  0.00  0.00  0.41  0.00
  C15                     1.00   0.00  0.00  0.00  0.00  1.00  0.00  0.00  0.01  0.00
  C16                     1.00   0.00  0.00  0.00  0.31  0.69  0.00  0.00  0.27  0.00
  C17                     1.00   0.00  0.00  0.00  0.58  0.42  0.00  0.00  0.94  0.00
  C18                     1.00   0.00  0.00  0.00  0.96  0.04  0.00  0.00  0.98  0.00
  C19                     1.00   0.00  0.00  0.00  1.00  0.00  0.00  0.00  1.00  0.00
  C2                      1.00   0.00  0.00  0.00  0.77  0.23  0.00  0.00  0.98  0.00
  C20                     1.00   0.00  0.00  0.00  0.51  0.49  0.00  0.00  0.99  0.00
  C21                     1.00   0.00  0.00  0.00  0.01  0.99  0.00  0.00  0.00  0.00
  C22                     1.00   0.00  0.00  0.00  0.85  0.15  0.00  0.00  1.00  0.00
  C23                     1.00   0.00  0.00  0.00  0.94  0.06  0.00  0.00  0.96  0.00
  C3                      1.00   0.00  0.00  0.00  0.03  0.96  0.00  0.00  0.12  0.00
  C4                      1.00   0.00  0.00  0.00  0.97  0.03  0.00  0.00  0.98  0.00
  C5                      1.00   0.00  0.00  0.00  0.81  0.19  0.00  0.00  0.91  0.00
  C6                      1.00   0.00  0.00  0.00  0.13  0.87  0.00  0.00  0.00  0.00
  C7                      1.00   0.00  0.00  0.00  0.96  0.04  0.00  0.00  0.97  0.00
  C8                      1.00   0.00  0.00  0.00  0.19  0.81  0.00  0.00  0.00  0.00
  C9                      1.00   0.00  0.00  0.00  1.00  0.00  0.00  0.00  1.00  0.00
  
  
  *************************
  Conduit Surcharge Summary
  *************************
  
  ----------------------------------------------------------------------------
                                                           Hours        Hours 
                         --------- Hours Full --------   Above Full   Capacity
  Conduit                Both Ends  Upstream  Dnstream   Normal Flow   Limited
  ----------------------------------------------------------------------------
  C10                         0.01      0.01      7.68      0.01         0.01
  C13                         0.01      0.01      7.30      0.01         0.01
  C15                         0.01      0.76      0.01      0.81         0.01
  C18                         0.01      0.01      7.30      0.01         0.01
  C21                         0.01      0.89      0.01      0.87         0.01
  C23                         0.01      0.01      7.71      0.01         0.01
  C4                          0.01      0.01      7.78      0.01         0.01
  C5                          0.63      0.65      0.72      0.65         0.61
  C6                          0.01      0.63      0.01      0.56         0.01
  C7                          0.01      0.01      7.47      0.01         0.01
  C8                          0.01      0.90      0.01      0.92         0.01
  

  Analysis begun on:  Sun Jul 17 20:34:23 2022
  Analysis ended on:  Sun Jul 17 20:34:23 2022
  Total elapsed time: < 1 sec