
  EPA STORM WATER MANAGEMENT MODEL - VERSION 5.1 (Build 5.3.0.dev0)
  --------------------------------------------------------------

  
  *********************************************************
  NOTE: The summary statistics displayed in this report are
  based on results found at every computational time step,  
  not just on results from each reporting time step.
  *********************************************************
  
  ****************
  Analysis Options
  ****************
  Flow Units ............... CMS
  Process Models:
    Rainfall/Runoff ........ YES
    RDII ................... NO
    Snowmelt ............... NO
    Groundwater ............ NO
    Flow Routing ........... YES
    Ponding Allowed ........ NO
    Water Quality .......... NO
  Infiltration Method ...... HORTON
  Flow Routing Method ...... DYNWAVE
  Surcharge Method ......... EXTRAN
  Starting Date ............ 08/15/2007 13:50:00
  Ending Date .............. 08/15/2007 21:35:00
  Antecedent Dry Days ...... 0.0
  Report Time Step ......... 00:05:00
  Wet Time Step ............ 00:05:00
  Dry Time Step ............ 01:00:00
  Routing Time Step ........ 30.00 sec
  Variable Time Step ....... YES
  Maximum Trials ........... 8
  Number of Threads ........ 1
  Head Tolerance ........... 0.001500 m
  
  
  **************************        Volume         Depth
  Runoff Quantity Continuity     hectare-m            mm
  **************************     ---------       -------
  Total Precipitation ......         1.162         6.446
  Evaporation Loss .........         0.000         0.000
  Infiltration Loss ........         0.000         0.000
  Surface Runoff ...........         1.118         6.206
  Final Storage ............         0.045         0.251
  Continuity Error (%) .....        -0.162
  
  
  **************************        Volume        Volume
  Flow Routing Continuity        hectare-m      10^6 ltr
  **************************     ---------     ---------
  Dry Weather Inflow .......         0.278         2.780
  Wet Weather Inflow .......         1.118        11.177
  Groundwater Inflow .......         0.000         0.000
  RDII Inflow ..............         0.000         0.000
  External Inflow ..........         0.000         0.000
  External Outflow .........         0.473         4.731
  Flooding Loss ............         0.062         0.624
  Evaporation Loss .........         0.000         0.000
  Exfiltration Loss ........         0.000         0.000
  Initial Stored Volume ....         0.000         0.000
  Final Stored Volume ......         0.645         6.448
  Continuity Error (%) .....        15.439
  
  
  *************************
  Highest Continuity Errors
  *************************
  Node T2 (32.35%)
  Node T4 (29.88%)
  Node T6 (29.05%)
  Node T5 (28.15%)
  Node T3 (22.19%)
  
  
  ***************************
  Time-Step Critical Elements
  ***************************
  Link C15 (48.37%)
  
  
  ********************************
  Highest Flow Instability Indexes
  ********************************
  Link C23 (3)
  Link C18 (3)
  Link C19 (3)
  Link C11 (3)
  Link V3 (3)
  
  
  *************************
  Routing Time Step Summary
  *************************
  Minimum Time Step           :     0.30 sec
  Average Time Step           :    26.79 sec
  Maximum Time Step           :    30.00 sec
  Percent in Steady State     :     1.29
  Average Iterations per Step :     2.01
  Percent Not Converging      :     0.00
  
  
  ***************************
  Subcatchment Runoff Summary
  ***************************
  
  ------------------------------------------------------------------------------------------------------------------------------
                            Total      Total      Total      Total     Imperv       Perv      Total       Total     Peak  Runoff
                           Precip      Runon       Evap      Infil     Runoff     Runoff     Runoff      Runoff   Runoff   Coeff
  Subcatchment                 mm         mm         mm         mm         mm         mm         mm    10^6 ltr      CMS
  ------------------------------------------------------------------------------------------------------------------------------
  SC01                       6.83       0.00       0.00       0.00       6.69       0.00       6.69        2.21     0.31   0.980
  SC010                      6.83       0.00       0.00       0.00       6.62       0.00       6.62        0.78     0.10   0.970
  SC02                       7.67       0.00       0.00       0.00       7.51       0.00       7.51        1.71     0.24   0.980
  SC03                       5.53       0.00       0.00       0.00       5.44       0.00       5.44        0.98     0.15   0.983
  SC04                       7.67       0.00       0.00       0.00       7.27       0.00       7.27        0.50     0.06   0.947
  SC05                       6.83       0.00       0.00       0.00       6.67       0.00       6.67        1.04     0.15   0.977
  SC06                       5.86       0.00       0.00       0.00       5.36       0.00       5.36        1.74     0.23   0.915
  SC07                       7.67       0.00       0.00       0.00       7.27       0.00       7.27        0.35     0.04   0.948
  SC08                       5.53       0.00       0.00       0.00       5.32       0.00       5.32        1.49     0.20   0.963
  SC09                       5.86       0.00       0.00       0.00       5.58       0.00       5.58        0.38     0.05   0.952
  
  
  ******************
  Node Depth Summary
  ******************
  
  ---------------------------------------------------------------------------------
                                 Average  Maximum  Maximum  Time of Max    Reported
                                   Depth    Depth      HGL   Occurrence   Max Depth
  Node                 Type       Meters   Meters   Meters  days hr:min      Meters
  ---------------------------------------------------------------------------------
  CSO10                JUNCTION     0.13     0.27    30.27     0  04:30        0.27
  CSO7                 JUNCTION     0.10     0.19    34.19     0  05:35        0.19
  CSO8                 JUNCTION     0.13     0.27    32.27     0  04:25        0.27
  CSO9                 JUNCTION     0.11     0.21    40.21     0  05:36        0.21
  J1                   JUNCTION     0.08     0.13    34.13     0  04:26        0.13
  J10                  JUNCTION     0.10     0.18    29.18     0  04:25        0.18
  J11                  JUNCTION     0.10     0.19    31.19     0  04:26        0.19
  J12                  JUNCTION     0.13     0.22    26.22     0  04:28        0.22
  J13                  JUNCTION     0.07     0.14    29.14     0  05:35        0.14
  J14                  JUNCTION     0.10     0.16    20.16     0  05:02        0.16
  J15                  JUNCTION     0.16     0.25    15.25     0  04:45        0.25
  J16                  JUNCTION     0.08     0.14    30.14     0  04:26        0.14
  J17                  JUNCTION     0.06     0.13    20.13     0  05:40        0.13
  J18                  JUNCTION     0.06     0.12    29.12     0  04:31        0.12
  J19                  JUNCTION     0.13     0.17     8.17     0  04:57        0.17
  J2                   JUNCTION     0.06     0.08    25.08     0  06:14        0.08
  J3                   JUNCTION     0.09     0.13    18.13     0  05:05        0.13
  J4                   JUNCTION     0.13     0.22    33.22     0  05:37        0.22
  J5                   JUNCTION     0.07     0.12    32.12     0  05:36        0.12
  J6                   JUNCTION     0.05     0.07    25.07     0  06:45        0.07
  J7                   JUNCTION     0.08     0.15    39.15     0  05:39        0.15
  J8                   JUNCTION     0.11     0.18    36.18     0  05:39        0.18
  J9                   JUNCTION     0.09     0.15    29.15     0  06:15        0.15
  Out_to_WWTP          OUTFALL      0.13     0.17     6.17     0  06:27        0.17
  T1                   STORAGE      2.68     5.00    15.00     0  04:56        5.00
  T2                   STORAGE      1.42     3.44    24.44     0  07:05        3.44
  T3                   STORAGE      1.65     3.63    25.63     0  06:30        3.63
  T4                   STORAGE      2.04     4.62    31.62     0  07:31        4.62
  T5                   STORAGE      2.14     4.54    31.54     0  06:12        4.54
  T6                   STORAGE      1.78     4.86    35.86     0  07:44        4.85
  
  
  *******************
  Node Inflow Summary
  *******************
  
  -------------------------------------------------------------------------------------------------
                                  Maximum  Maximum                  Lateral       Total        Flow
                                  Lateral    Total  Time of Max      Inflow      Inflow     Balance
                                   Inflow   Inflow   Occurrence      Volume      Volume       Error
  Node                 Type           CMS      CMS  days hr:min    10^6 ltr    10^6 ltr     Percent
  -------------------------------------------------------------------------------------------------
  CSO10                JUNCTION     0.108    0.108     0  04:30       0.878       0.878       0.052
  CSO7                 JUNCTION     0.053    0.053     0  05:35       0.553       0.553       0.081
  CSO8                 JUNCTION     0.196    0.196     0  04:25        1.65        1.65       0.016
  CSO9                 JUNCTION     0.057    0.057     0  05:35       0.525       0.526       0.087
  J1                   JUNCTION     0.160    0.160     0  04:25        1.44        1.44       0.019
  J10                  JUNCTION     0.162    0.348     0  04:25        1.25         2.9       0.098
  J11                  JUNCTION     0.000    0.196     0  04:25           0        1.65       0.196
  J12                  JUNCTION     0.000    0.424     0  04:26           0        4.39       0.129
  J13                  JUNCTION     0.249    0.249     0  05:35        2.04        2.04      -0.183
  J14                  JUNCTION     0.000    0.130     0  05:05           0        1.64       0.383
  J15                  JUNCTION     0.000    0.571     0  04:45           0        6.75       1.134
  J16                  JUNCTION     0.328    0.328     0  04:25         2.6         2.6       0.002
  J17                  JUNCTION     0.000    0.104     0  05:40           0       0.715       0.661
  J18                  JUNCTION     0.000    0.107     0  04:30           0       0.878       0.119
  J19                  JUNCTION     0.000    0.271     0  04:56           0        4.74       0.252
  J2                   JUNCTION     0.000    0.037     0  06:12           0       0.628       0.829
  J3                   JUNCTION     0.000    0.183     0  05:05           0        2.59       1.303
  J4                   JUNCTION     0.000    0.052     0  05:35           0       0.553       0.542
  J5                   JUNCTION     0.068    0.119     0  05:35       0.592        1.14       0.127
  J6                   JUNCTION     0.000    0.027     0  06:45           0       0.338       0.706
  J7                   JUNCTION     0.000    0.057     0  05:36           0       0.525       0.532
  J8                   JUNCTION     0.252    0.307     0  05:37        2.42        2.94       0.197
  J9                   JUNCTION     0.000    0.159     0  06:11           0         1.5       0.437
  Out_to_WWTP          OUTFALL      0.000    0.271     0  04:58           0        4.73       0.000
  T1                   STORAGE      0.000    0.565     0  04:45           0        6.67      11.801
  T2                   STORAGE      0.000    0.247     0  05:35           0        2.05      47.810
  T3                   STORAGE      0.000    0.418     0  04:28           0        4.38      28.523
  T4                   STORAGE      0.000    0.118     0  05:36           0        1.14      42.608
  T5                   STORAGE      0.000    0.159     0  04:26           0        1.44      39.181
  T6                   STORAGE      0.000    0.307     0  05:39           0        2.94      40.944
  
  
  **********************
  Node Surcharge Summary
  **********************
  
  No nodes were surcharged.
  
  
  *********************
  Node Flooding Summary
  *********************
  
  Flooding refers to all water that overflows a node, whether it ponds or not.
  --------------------------------------------------------------------------
                                                             Total   Maximum
                                 Maximum   Time of Max       Flood    Ponded
                        Hours       Rate    Occurrence      Volume     Depth
  Node                 Flooded       CMS   days hr:min    10^6 ltr    Meters
  --------------------------------------------------------------------------
  T1                      1.32     0.263      0  05:40       0.624     0.000
  
  
  **********************
  Storage Volume Summary
  **********************
  
  --------------------------------------------------------------------------------------------------
                         Average     Avg  Evap Exfil       Maximum     Max    Time of Max    Maximum
                          Volume    Pcnt  Pcnt  Pcnt        Volume    Pcnt     Occurrence    Outflow
  Storage Unit           1000 m3    Full  Loss  Loss       1000 m3    Full    days hr:min        CMS
  --------------------------------------------------------------------------------------------------
  T1                       0.375      54     0     0         0.700     100       0  04:56      0.271
  T2                       0.284      28     0     0         0.687      69       0  07:05      0.104
  T3                       0.859      33     0     0         1.889      73       0  06:30      0.130
  T4                       0.204      41     0     0         0.462      92       0  07:31      0.027
  T5                       0.214      43     0     0         0.454      91       0  06:12      0.037
  T6                       0.214      36     0     0         0.584      97       0  07:44      0.159
  
  
  ***********************
  Outfall Loading Summary
  ***********************
  
  -----------------------------------------------------------
                         Flow       Avg       Max       Total
                         Freq      Flow      Flow      Volume
  Outfall Node           Pcnt       CMS       CMS    10^6 ltr
  -----------------------------------------------------------
  Out_to_WWTP           99.13     0.176     0.271       4.731
  -----------------------------------------------------------
  System                99.13     0.176     0.271       4.731
  
  
  ********************
  Link Flow Summary
  ********************
  
  -----------------------------------------------------------------------------
                                 Maximum  Time of Max   Maximum    Max/    Max/
                                  |Flow|   Occurrence   |Veloc|    Full    Full
  Link                 Type          CMS  days hr:min     m/sec    Flow   Depth
  -----------------------------------------------------------------------------
  C1                   CONDUIT     0.037     0  06:15      1.07    0.01    0.10
  C10                  CONDUIT     0.307     0  05:39      1.81    0.03    0.56
  C11                  CONDUIT     0.175     0  05:05      1.62    0.01    0.09
  C12                  CONDUIT     0.142     0  05:50      1.39    0.01    0.09
  C13                  CONDUIT     0.418     0  04:28      1.41    0.02    0.55
  C14                  CONDUIT     0.271     0  04:58      2.08    0.02    0.09
  C15                  CONDUIT     0.196     0  04:25      2.40    0.62    0.51
  C16                  CONDUIT     0.193     0  04:26      1.31    0.02    0.09
  C17                  CONDUIT     0.346     0  04:26      2.15    0.02    0.10
  C18                  CONDUIT     0.247     0  05:35      3.17    0.01    0.53
  C19                  CONDUIT     0.103     0  05:40      1.01    0.04    0.19
  C2                   CONDUIT     0.027     0  06:45      1.23    0.03    0.17
  C20                  CONDUIT     0.327     0  04:26      3.22    0.01    0.10
  C21                  CONDUIT     0.107     0  04:30      1.64    0.62    0.45
  C22                  CONDUIT     0.107     0  04:31      1.23    0.05    0.23
  C23                  CONDUIT     0.565     0  04:45      1.35    0.06    0.58
  C3                   CONDUIT     0.130     0  05:05      1.91    0.05    0.14
  C4                   CONDUIT     0.159     0  04:26      3.10    0.04    0.57
  C5                   CONDUIT     0.052     0  05:35      1.34    0.90    0.80
  C6                   CONDUIT     0.051     0  05:37      1.24    0.81    0.57
  C7                   CONDUIT     0.118     0  05:36      1.57    0.03    0.56
  C8                   CONDUIT     0.057     0  05:36      1.25    0.72    0.56
  C9                   CONDUIT     0.056     0  05:39      0.99    0.19    0.33
  V1                   ORIFICE     0.271     0  04:56                      1.00
  V2                   ORIFICE     0.104     0  05:40                      1.00
  V3                   ORIFICE     0.130     0  05:05                      1.00
  V4                   ORIFICE     0.027     0  06:45                      1.00
  V5                   ORIFICE     0.037     0  06:12                      1.00
  V6                   ORIFICE     0.159     0  06:11                      1.00
  
  
  ***************************
  Flow Classification Summary
  ***************************
  
  -------------------------------------------------------------------------------------
                      Adjusted    ---------- Fraction of Time in Flow Class ---------- 
                       /Actual         Up    Down  Sub   Sup   Up    Down  Norm  Inlet 
  Conduit               Length    Dry  Dry   Dry   Crit  Crit  Crit  Crit  Ltd   Ctrl  
  -------------------------------------------------------------------------------------
  C1                      1.00   0.00  0.00  0.00  0.29  0.71  0.00  0.00  0.96  0.00
  C10                     1.00   0.00  0.00  0.00  0.97  0.03  0.00  0.00  0.98  0.00
  C11                     1.00   0.00  0.00  0.00  0.51  0.49  0.00  0.00  1.00  0.00
  C12                     1.00   0.00  0.00  0.00  0.79  0.20  0.00  0.00  0.99  0.00
  C13                     1.00   0.00  0.00  0.00  0.85  0.15  0.00  0.00  0.90  0.00
  C14                     1.00   0.01  0.00  0.00  0.01  0.98  0.00  0.00  0.48  0.00
  C15                     1.00   0.00  0.00  0.00  0.00  1.00  0.00  0.00  0.00  0.00
  C16                     1.00   0.00  0.00  0.00  0.30  0.70  0.00  0.00  0.24  0.00
  C17                     1.00   0.00  0.00  0.00  0.04  0.96  0.00  0.00  0.97  0.00
  C18                     1.00   0.00  0.00  0.00  0.94  0.06  0.00  0.00  0.98  0.00
  C19                     1.00   0.00  0.00  0.00  0.82  0.18  0.00  0.00  1.00  0.00
  C2                      1.00   0.00  0.00  0.00  0.70  0.30  0.00  0.00  0.96  0.00
  C20                     1.00   0.00  0.00  0.00  0.34  0.66  0.00  0.00  0.98  0.00
  C21                     1.00   0.00  0.00  0.00  0.00  1.00  0.00  0.00  0.00  0.00
  C22                     1.00   0.00  0.00  0.00  0.81  0.18  0.00  0.00  1.00  0.00
  C23                     1.00   0.00  0.00  0.00  0.91  0.08  0.00  0.00  0.95  0.00
  C3                      1.00   0.00  0.00  0.00  0.05  0.94  0.00  0.00  0.28  0.00
  C4                      1.00   0.00  0.00  0.00  0.97  0.03  0.00  0.00  0.98  0.00
  C5                      1.00   0.00  0.00  0.00  0.87  0.13  0.00  0.00  0.98  0.00
  C6                      1.00   0.00  0.00  0.00  0.01  0.99  0.00  0.00  0.00  0.00
  C7                      1.00   0.00  0.00  0.00  0.95  0.05  0.00  0.00  0.97  0.00
  C8                      1.00   0.00  0.00  0.00  0.00  1.00  0.00  0.00  0.00  0.00
  C9                      1.00   0.00  0.00  0.00  1.00  0.00  0.00  0.00  1.00  0.00
  
  
  *************************
  Conduit Surcharge Summary
  *************************
  
  ----------------------------------------------------------------------------
                                                           Hours        Hours 
                         --------- Hours Full --------   Above Full   Capacity
  Conduit                Both Ends  Upstream  Dnstream   Normal Flow   Limited
  ----------------------------------------------------------------------------
  C10                         0.01      0.01      2.97      0.01         0.01
  C13                         0.01      0.01      3.01      0.01         0.01
  C18                         0.01      0.01      2.54      0.01         0.01
  C23                         0.01      0.01      4.60      0.01         0.01
  C4                          0.01      0.01      4.56      0.01         0.01
  C7                          0.01      0.01      4.55      0.01         0.01
  

  Analysis begun on:  Sun Jul 17 20:07:11 2022
  Analysis ended on:  Sun Jul 17 20:07:11 2022
  Total elapsed time: < 1 sec