
  EPA STORM WATER MANAGEMENT MODEL - VERSION 5.1 (Build 5.3.0.dev0)
  --------------------------------------------------------------

  
  *********************************************************
  NOTE: The summary statistics displayed in this report are
  based on results found at every computational time step,  
  not just on results from each reporting time step.
  *********************************************************
  
  ****************
  Analysis Options
  ****************
  Flow Units ............... CMS
  Process Models:
    Rainfall/Runoff ........ YES
    RDII ................... NO
    Snowmelt ............... NO
    Groundwater ............ NO
    Flow Routing ........... YES
    Ponding Allowed ........ NO
    Water Quality .......... NO
  Infiltration Method ...... HORTON
  Flow Routing Method ...... DYNWAVE
  Surcharge Method ......... EXTRAN
  Starting Date ............ 08/30/2007 03:45:00
  Ending Date .............. 08/30/2007 16:55:00
  Antecedent Dry Days ...... 0.0
  Report Time Step ......... 00:05:00
  Wet Time Step ............ 00:05:00
  Dry Time Step ............ 01:00:00
  Routing Time Step ........ 30.00 sec
  Variable Time Step ....... YES
  Maximum Trials ........... 8
  Number of Threads ........ 1
  Head Tolerance ........... 0.001500 m
  
  
  **************************        Volume         Depth
  Runoff Quantity Continuity     hectare-m            mm
  **************************     ---------       -------
  Total Precipitation ......         1.141         6.332
  Evaporation Loss .........         0.000         0.000
  Infiltration Loss ........         0.000         0.000
  Surface Runoff ...........         1.114         6.185
  Final Storage ............         0.029         0.159
  Continuity Error (%) .....        -0.182
  
  
  **************************        Volume        Volume
  Flow Routing Continuity        hectare-m      10^6 ltr
  **************************     ---------     ---------
  Dry Weather Inflow .......         0.561         5.613
  Wet Weather Inflow .......         1.114        11.141
  Groundwater Inflow .......         0.000         0.000
  RDII Inflow ..............         0.000         0.000
  External Inflow ..........         0.000         0.000
  External Outflow .........         1.032        10.316
  Flooding Loss ............         0.036         0.355
  Evaporation Loss .........         0.000         0.000
  Exfiltration Loss ........         0.000         0.000
  Initial Stored Volume ....         0.000         0.000
  Final Stored Volume ......         0.507         5.072
  Continuity Error (%) .....         6.035
  
  
  *************************
  Highest Continuity Errors
  *************************
  Node T4 (25.15%)
  Node T2 (19.01%)
  Node T3 (16.99%)
  Node T5 (15.77%)
  Node T1 (3.97%)
  
  
  ***************************
  Time-Step Critical Elements
  ***************************
  Link C15 (30.26%)
  
  
  ********************************
  Highest Flow Instability Indexes
  ********************************
  Link C23 (3)
  Link C20 (3)
  Link C2 (3)
  Link C19 (2)
  Link V2 (2)
  
  
  *************************
  Routing Time Step Summary
  *************************
  Minimum Time Step           :     0.01 sec
  Average Time Step           :    28.20 sec
  Maximum Time Step           :    30.00 sec
  Percent in Steady State     :     8.86
  Average Iterations per Step :     2.01
  Percent Not Converging      :     0.00
  
  
  ***************************
  Subcatchment Runoff Summary
  ***************************
  
  ------------------------------------------------------------------------------------------------------------------------------
                            Total      Total      Total      Total     Imperv       Perv      Total       Total     Peak  Runoff
                           Precip      Runon       Evap      Infil     Runoff     Runoff     Runoff      Runoff   Runoff   Coeff
  Subcatchment                 mm         mm         mm         mm         mm         mm         mm    10^6 ltr      CMS
  ------------------------------------------------------------------------------------------------------------------------------
  SC01                       7.80       0.00       0.00       0.00       7.71       0.00       7.71        2.54     0.24   0.988
  SC010                      7.80       0.00       0.00       0.00       7.67       0.00       7.67        0.90     0.07   0.984
  SC02                       6.61       0.00       0.00       0.00       6.48       0.00       6.48        1.47     0.09   0.980
  SC03                       5.65       0.00       0.00       0.00       5.58       0.00       5.58        1.00     0.09   0.987
  SC04                       6.61       0.00       0.00       0.00       6.33       0.00       6.33        0.44     0.02   0.958
  SC05                       7.80       0.00       0.00       0.00       7.70       0.00       7.70        1.20     0.11   0.987
  SC06                       4.64       0.00       0.00       0.00       4.39       0.00       4.39        1.43     0.08   0.947
  SC07                       6.61       0.00       0.00       0.00       6.33       0.00       6.33        0.30     0.02   0.958
  SC08                       5.65       0.00       0.00       0.00       5.51       0.00       5.51        1.54     0.12   0.975
  SC09                       4.64       0.00       0.00       0.00       4.48       0.00       4.48        0.31     0.02   0.965
  
  
  ******************
  Node Depth Summary
  ******************
  
  ---------------------------------------------------------------------------------
                                 Average  Maximum  Maximum  Time of Max    Reported
                                   Depth    Depth      HGL   Occurrence   Max Depth
  Node                 Type       Meters   Meters   Meters  days hr:min      Meters
  ---------------------------------------------------------------------------------
  CSO10                JUNCTION     0.11     0.21    30.21     0  00:26        0.21
  CSO7                 JUNCTION     0.09     0.12    34.12     0  07:16        0.12
  CSO8                 JUNCTION     0.11     0.21    32.21     0  02:25        0.21
  CSO9                 JUNCTION     0.09     0.13    40.13     0  02:20        0.13
  J1                   JUNCTION     0.07     0.11    34.11     0  00:26        0.11
  J10                  JUNCTION     0.08     0.15    29.15     0  02:26        0.15
  J11                  JUNCTION     0.09     0.16    31.16     0  02:27        0.16
  J12                  JUNCTION     0.13     0.18    26.18     0  02:30        0.18
  J13                  JUNCTION     0.06     0.09    29.09     0  07:01        0.09
  J14                  JUNCTION     0.12     0.16    20.16     0  07:12        0.16
  J15                  JUNCTION     0.17     0.22    15.22     0  06:26        0.22
  J16                  JUNCTION     0.07     0.13    30.13     0  00:26        0.12
  J17                  JUNCTION     0.07     0.12    20.12     0  11:33        0.12
  J18                  JUNCTION     0.05     0.10    29.10     0  00:30        0.10
  J19                  JUNCTION     0.15     0.17     8.17     0  06:34        0.17
  J2                   JUNCTION     0.07     0.07    25.07     0  08:09        0.07
  J3                   JUNCTION     0.11     0.14    18.14     0  07:25        0.14
  J4                   JUNCTION     0.11     0.15    33.15     0  07:11        0.15
  J5                   JUNCTION     0.06     0.08    32.08     0  07:10        0.08
  J6                   JUNCTION     0.05     0.08    25.08     0  02:50        0.08
  J7                   JUNCTION     0.07     0.10    39.10     0  02:23        0.10
  J8                   JUNCTION     0.09     0.12    36.12     0  06:34        0.12
  J9                   JUNCTION     0.10     0.12    29.12     0  08:02        0.12
  Out_to_WWTP          OUTFALL      0.15     0.17     6.17     0  07:56        0.17
  T1                   STORAGE      3.50     5.00    15.00     0  06:33        5.00
  T2                   STORAGE      1.12     1.88    22.88     0  11:25        1.88
  T3                   STORAGE      2.06     3.39    25.39     0  11:53        3.39
  T4                   STORAGE      2.38     4.16    31.16     0  12:59        4.16
  T5                   STORAGE      2.86     4.22    31.22     0  08:07        4.22
  T6                   STORAGE      0.91     1.49    32.49     0  08:00        1.49
  
  
  *******************
  Node Inflow Summary
  *******************
  
  -------------------------------------------------------------------------------------------------
                                  Maximum  Maximum                  Lateral       Total        Flow
                                  Lateral    Total  Time of Max      Inflow      Inflow     Balance
                                   Inflow   Inflow   Occurrence      Volume      Volume       Error
  Node                 Type           CMS      CMS  days hr:min    10^6 ltr    10^6 ltr     Percent
  -------------------------------------------------------------------------------------------------
  CSO10                JUNCTION     0.069    0.069     0  00:25         1.1         1.1      -0.030
  CSO7                 JUNCTION     0.028    0.028     0  07:15       0.713       0.714       0.079
  CSO8                 JUNCTION     0.133    0.133     0  02:25        1.95        1.95       0.030
  CSO9                 JUNCTION     0.026    0.026     0  02:20       0.588       0.588       0.047
  J1                   JUNCTION     0.116    0.116     0  00:25           2           2      -0.118
  J10                  JUNCTION     0.098    0.228     0  02:25        1.55        3.49       0.200
  J11                  JUNCTION     0.000    0.133     0  02:25           0        1.95       0.379
  J12                  JUNCTION     0.000    0.289     0  02:27           0        6.71       0.188
  J13                  JUNCTION     0.107    0.107     0  07:00        2.14        2.14       0.037
  J14                  JUNCTION     0.000    0.139     0  07:25           0        3.87       0.165
  J15                  JUNCTION     0.000    0.432     0  06:25           0        11.6       0.089
  J16                  JUNCTION     0.252    0.252     0  00:25        3.33        3.34      -0.131
  J17                  JUNCTION     0.000    0.086     0  11:25           0        1.38      -1.539
  J18                  JUNCTION     0.000    0.069     0  00:27           0         1.1      -0.085
  J19                  JUNCTION     0.000    0.271     0  06:34           0        10.3       0.100
  J2                   JUNCTION     0.000    0.036     0  08:07           0        1.36       0.337
  J3                   JUNCTION     0.000    0.198     0  07:23           0        5.79       0.812
  J4                   JUNCTION     0.000    0.028     0  07:16           0       0.714       0.623
  J5                   JUNCTION     0.029    0.057     0  07:10       0.618        1.33       0.205
  J6                   JUNCTION     0.000    0.033     0  02:50           0       0.576       1.067
  J7                   JUNCTION     0.000    0.026     0  02:20           0       0.588       0.367
  J8                   JUNCTION     0.105    0.130     0  02:20        2.77        3.36       0.058
  J9                   JUNCTION     0.000    0.095     0  08:00           0        3.24       0.368
  Out_to_WWTP          OUTFALL      0.000    0.271     0  06:35           0        10.3       0.000
  T1                   STORAGE      0.000    0.425     0  06:26           0        11.6       4.133
  T2                   STORAGE      0.000    0.106     0  07:02           0        2.14      23.471
  T3                   STORAGE      0.000    0.287     0  02:30           0        6.69      20.469
  T4                   STORAGE      0.000    0.056     0  07:10           0        1.33      33.602
  T5                   STORAGE      0.000    0.114     0  00:26           0        2.01      18.722
  T6                   STORAGE      0.000    0.129     0  06:34           0        3.35       1.244
  
  
  **********************
  Node Surcharge Summary
  **********************
  
  No nodes were surcharged.
  
  
  *********************
  Node Flooding Summary
  *********************
  
  Flooding refers to all water that overflows a node, whether it ponds or not.
  --------------------------------------------------------------------------
                                                             Total   Maximum
                                 Maximum   Time of Max       Flood    Ponded
                        Hours       Rate    Occurrence      Volume     Depth
  Node                 Flooded       CMS   days hr:min    10^6 ltr    Meters
  --------------------------------------------------------------------------
  T1                      1.18     0.135      0  07:02       0.355     0.000
  
  
  **********************
  Storage Volume Summary
  **********************
  
  --------------------------------------------------------------------------------------------------
                         Average     Avg  Evap Exfil       Maximum     Max    Time of Max    Maximum
                          Volume    Pcnt  Pcnt  Pcnt        Volume    Pcnt     Occurrence    Outflow
  Storage Unit           1000 m3    Full  Loss  Loss       1000 m3    Full    days hr:min        CMS
  --------------------------------------------------------------------------------------------------
  T1                       0.490      70     0     0         0.700     100       0  06:33      0.271
  T2                       0.224      22     0     0         0.376      38       0  11:25      0.086
  T3                       1.069      41     0     0         1.762      68       0  11:53      0.139
  T4                       0.238      48     0     0         0.416      83       0  12:59      0.033
  T5                       0.286      57     0     0         0.422      84       0  08:07      0.036
  T6                       0.109      18     0     0         0.179      30       0  08:00      0.095
  
  
  ***********************
  Outfall Loading Summary
  ***********************
  
  -----------------------------------------------------------
                         Flow       Avg       Max       Total
                         Freq      Flow      Flow      Volume
  Outfall Node           Pcnt       CMS       CMS    10^6 ltr
  -----------------------------------------------------------
  Out_to_WWTP           98.98     0.220     0.271      10.315
  -----------------------------------------------------------
  System                98.98     0.220     0.271      10.315
  
  
  ********************
  Link Flow Summary
  ********************
  
  -----------------------------------------------------------------------------
                                 Maximum  Time of Max   Maximum    Max/    Max/
                                  |Flow|   Occurrence   |Veloc|    Full    Full
  Link                 Type          CMS  days hr:min     m/sec    Flow   Depth
  -----------------------------------------------------------------------------
  C1                   CONDUIT     0.036     0  08:09      1.10    0.01    0.11
  C10                  CONDUIT     0.129     0  06:34      2.18    0.01    0.53
  C11                  CONDUIT     0.191     0  07:25      1.65    0.01    0.09
  C12                  CONDUIT     0.095     0  08:02      1.14    0.01    0.07
  C13                  CONDUIT     0.287     0  02:30      1.64    0.02    0.54
  C14                  CONDUIT     0.271     0  06:35      2.08    0.02    0.09
  C15                  CONDUIT     0.133     0  02:25      2.14    0.42    0.41
  C16                  CONDUIT     0.131     0  02:27      1.18    0.01    0.08
  C17                  CONDUIT     0.226     0  02:26      1.86    0.01    0.08
  C18                  CONDUIT     0.106     0  07:02      1.94    0.00    0.48
  C19                  CONDUIT     0.084     0  11:33      1.23    0.03    0.16
  C2                   CONDUIT     0.032     0  02:50      1.07    0.04    0.17
  C20                  CONDUIT     0.250     0  00:26      2.77    0.01    0.08
  C21                  CONDUIT     0.069     0  00:27      1.54    0.39    0.35
  C22                  CONDUIT     0.067     0  00:30      1.20    0.03    0.19
  C23                  CONDUIT     0.425     0  06:26      2.07    0.05    0.57
  C3                   CONDUIT     0.140     0  07:23      2.01    0.05    0.15
  C4                   CONDUIT     0.114     0  00:26      6.63    0.03    0.56
  C5                   CONDUIT     0.028     0  07:16      1.50    0.47    0.53
  C6                   CONDUIT     0.027     0  07:11      1.09    0.43    0.39
  C7                   CONDUIT     0.056     0  07:10      1.42    0.01    0.54
  C8                   CONDUIT     0.026     0  02:20      1.39    0.33    0.36
  C9                   CONDUIT     0.026     0  02:23      0.79    0.09    0.22
  V1                   ORIFICE     0.271     0  06:34                      1.00
  V2                   ORIFICE     0.086     0  11:25                      1.00
  V3                   ORIFICE     0.139     0  07:25                      1.00
  V4                   ORIFICE     0.033     0  02:50                      1.00
  V5                   ORIFICE     0.036     0  08:07                      1.00
  V6                   ORIFICE     0.095     0  08:00                      1.00
  
  
  ***************************
  Flow Classification Summary
  ***************************
  
  -------------------------------------------------------------------------------------
                      Adjusted    ---------- Fraction of Time in Flow Class ---------- 
                       /Actual         Up    Down  Sub   Sup   Up    Down  Norm  Inlet 
  Conduit               Length    Dry  Dry   Dry   Crit  Crit  Crit  Crit  Ltd   Ctrl  
  -------------------------------------------------------------------------------------
  C1                      1.00   0.00  0.00  0.00  0.25  0.75  0.00  0.00  0.95  0.00
  C10                     1.00   0.00  0.00  0.00  0.96  0.04  0.00  0.00  0.97  0.00
  C11                     1.00   0.00  0.00  0.00  0.22  0.78  0.00  0.00  1.00  0.00
  C12                     1.00   0.00  0.00  0.00  0.40  0.60  0.00  0.00  0.98  0.00
  C13                     1.00   0.00  0.00  0.00  0.92  0.07  0.00  0.00  0.93  0.00
  C14                     1.00   0.00  0.00  0.00  0.01  0.99  0.00  0.00  0.23  0.00
  C15                     1.00   0.01  0.00  0.00  0.00  0.98  0.00  0.00  0.00  0.00
  C16                     1.00   0.00  0.01  0.00  0.37  0.62  0.00  0.00  0.29  0.00
  C17                     1.00   0.00  0.00  0.00  0.23  0.77  0.00  0.00  0.98  0.00
  C18                     1.00   0.00  0.00  0.00  0.96  0.04  0.00  0.00  0.97  0.00
  C19                     1.00   0.00  0.00  0.00  0.96  0.04  0.00  0.00  1.00  0.00
  C2                      1.00   0.00  0.00  0.00  0.85  0.15  0.00  0.00  1.00  0.00
  C20                     1.00   0.00  0.00  0.00  0.58  0.42  0.00  0.00  0.98  0.00
  C21                     1.00   0.00  0.00  0.00  0.00  1.00  0.00  0.00  0.00  0.00
  C22                     1.00   0.00  0.00  0.00  0.93  0.07  0.00  0.00  1.00  0.00
  C23                     1.00   0.00  0.00  0.00  0.96  0.04  0.00  0.00  0.97  0.00
  C3                      1.00   0.00  0.00  0.00  0.05  0.95  0.00  0.00  0.17  0.00
  C4                      1.00   0.00  0.00  0.00  0.97  0.03  0.00  0.00  0.98  0.00
  C5                      1.00   0.00  0.00  0.00  0.87  0.13  0.00  0.00  0.97  0.00
  C6                      1.00   0.00  0.00  0.00  0.01  0.99  0.00  0.00  0.00  0.00
  C7                      1.00   0.00  0.00  0.00  0.95  0.05  0.00  0.00  0.96  0.00
  C8                      1.00   0.00  0.00  0.00  0.00  1.00  0.00  0.00  0.00  0.00
  C9                      1.00   0.00  0.00  0.00  1.00  0.00  0.00  0.00  1.00  0.00
  
  
  *************************
  Conduit Surcharge Summary
  *************************
  
  ----------------------------------------------------------------------------
                                                           Hours        Hours 
                         --------- Hours Full --------   Above Full   Capacity
  Conduit                Both Ends  Upstream  Dnstream   Normal Flow   Limited
  ----------------------------------------------------------------------------
  C13                         0.01      0.01      6.85      0.01         0.01
  C23                         0.01      0.01     11.20      0.01         0.01
  C4                          0.01      0.01     11.33      0.01         0.01
  C7                          0.01      0.01     10.18      0.01         0.01
  

  Analysis begun on:  Sun Jul 17 20:11:40 2022
  Analysis ended on:  Sun Jul 17 20:11:43 2022
  Total elapsed time: 00:00:03