
  EPA STORM WATER MANAGEMENT MODEL - VERSION 5.1 (Build 5.3.0.dev0)
  --------------------------------------------------------------

  
  *********************************************************
  NOTE: The summary statistics displayed in this report are
  based on results found at every computational time step,  
  not just on results from each reporting time step.
  *********************************************************
  
  ****************
  Analysis Options
  ****************
  Flow Units ............... CMS
  Process Models:
    Rainfall/Runoff ........ YES
    RDII ................... NO
    Snowmelt ............... NO
    Groundwater ............ NO
    Flow Routing ........... YES
    Ponding Allowed ........ NO
    Water Quality .......... NO
  Infiltration Method ...... HORTON
  Flow Routing Method ...... DYNWAVE
  Surcharge Method ......... EXTRAN
  Starting Date ............ 02/13/2009 15:45:00
  Ending Date .............. 02/14/2009 03:15:00
  Antecedent Dry Days ...... 0.0
  Report Time Step ......... 00:05:00
  Wet Time Step ............ 00:05:00
  Dry Time Step ............ 01:00:00
  Routing Time Step ........ 30.00 sec
  Variable Time Step ....... YES
  Maximum Trials ........... 8
  Number of Threads ........ 1
  Head Tolerance ........... 0.001500 m
  
  
  **************************        Volume         Depth
  Runoff Quantity Continuity     hectare-m            mm
  **************************     ---------       -------
  Total Precipitation ......         1.883        10.449
  Evaporation Loss .........         0.000         0.000
  Infiltration Loss ........         0.000         0.000
  Surface Runoff ...........         1.852        10.280
  Final Storage ............         0.034         0.186
  Continuity Error (%) .....        -0.158
  
  
  **************************        Volume        Volume
  Flow Routing Continuity        hectare-m      10^6 ltr
  **************************     ---------     ---------
  Dry Weather Inflow .......         0.237         2.371
  Wet Weather Inflow .......         1.852        18.516
  Groundwater Inflow .......         0.000         0.000
  RDII Inflow ..............         0.000         0.000
  External Inflow ..........         0.000         0.000
  External Outflow .........         0.909         9.088
  Flooding Loss ............         0.193         1.928
  Evaporation Loss .........         0.000         0.000
  Exfiltration Loss ........         0.000         0.000
  Initial Stored Volume ....         0.000         0.000
  Final Stored Volume ......         0.746         7.460
  Continuity Error (%) .....        11.542
  
  
  *************************
  Highest Continuity Errors
  *************************
  Node T2 (35.12%)
  Node T4 (22.21%)
  Node T5 (16.73%)
  Node T3 (15.27%)
  Node T6 (9.76%)
  
  
  ***************************
  Time-Step Critical Elements
  ***************************
  Link C15 (44.72%)
  Link C21 (1.73%)
  
  
  ********************************
  Highest Flow Instability Indexes
  ********************************
  Link C13 (9)
  Link C23 (3)
  Link C3 (2)
  Link V3 (2)
  Link C11 (2)
  
  
  *************************
  Routing Time Step Summary
  *************************
  Minimum Time Step           :     0.64 sec
  Average Time Step           :    26.34 sec
  Maximum Time Step           :    30.00 sec
  Percent in Steady State     :     5.01
  Average Iterations per Step :     2.02
  Percent Not Converging      :     0.00
  
  
  ***************************
  Subcatchment Runoff Summary
  ***************************
  
  ------------------------------------------------------------------------------------------------------------------------------
                            Total      Total      Total      Total     Imperv       Perv      Total       Total     Peak  Runoff
                           Precip      Runon       Evap      Infil     Runoff     Runoff     Runoff      Runoff   Runoff   Coeff
  Subcatchment                 mm         mm         mm         mm         mm         mm         mm    10^6 ltr      CMS
  ------------------------------------------------------------------------------------------------------------------------------
  SC01                      10.05       0.00       0.00       0.00       9.94       0.00       9.94        3.28     0.32   0.989
  SC010                     10.05       0.00       0.00       0.00       9.89       0.00       9.89        1.16     0.10   0.984
  SC02                      10.76       0.00       0.00       0.00      10.64       0.00      10.64        2.42     0.26   0.989
  SC03                       9.05       0.00       0.00       0.00       8.98       0.00       8.98        1.62     0.21   0.993
  SC04                      10.76       0.00       0.00       0.00      10.49       0.00      10.49        0.72     0.07   0.975
  SC05                      10.05       0.00       0.00       0.00       9.93       0.00       9.93        1.55     0.15   0.988
  SC06                      12.42       0.00       0.00       0.00      12.10       0.00      12.10        3.94     0.32   0.974
  SC07                      10.76       0.00       0.00       0.00      10.49       0.00      10.49        0.50     0.05   0.975
  SC08                       9.05       0.00       0.00       0.00       8.90       0.00       8.90        2.49     0.25   0.983
  SC09                      12.42       0.00       0.00       0.00      12.23       0.00      12.23        0.84     0.07   0.984
  
  
  ******************
  Node Depth Summary
  ******************
  
  ---------------------------------------------------------------------------------
                                 Average  Maximum  Maximum  Time of Max    Reported
                                   Depth    Depth      HGL   Occurrence   Max Depth
  Node                 Type       Meters   Meters   Meters  days hr:min      Meters
  ---------------------------------------------------------------------------------
  CSO10                JUNCTION     0.13     0.26    30.26     0  01:45        0.26
  CSO7                 JUNCTION     0.09     0.20    34.20     0  04:05        0.19
  CSO8                 JUNCTION     0.14     0.32    32.32     0  02:45        0.32
  CSO9                 JUNCTION     0.12     0.27    40.27     0  03:55        0.27
  J1                   JUNCTION     0.07     0.13    34.13     0  01:45        0.13
  J10                  JUNCTION     0.10     0.20    29.20     0  02:50        0.20
  J11                  JUNCTION     0.11     0.21    31.21     0  02:51        0.21
  J12                  JUNCTION     0.46     0.89    26.89     0  09:36        0.89
  J13                  JUNCTION     0.07     0.14    29.14     0  04:05        0.14
  J14                  JUNCTION     0.12     0.19    20.19     0  07:27        0.19
  J15                  JUNCTION     0.18     0.24    15.24     0  02:41        0.24
  J16                  JUNCTION     0.07     0.14    30.14     0  01:45        0.14
  J17                  JUNCTION     0.05     0.13    20.13     0  04:10        0.13
  J18                  JUNCTION     0.06     0.12    29.12     0  01:47        0.11
  J19                  JUNCTION     0.15     0.17     8.17     0  03:19        0.17
  J2                   JUNCTION     0.07     0.08    25.08     0  05:43        0.08
  J3                   JUNCTION     0.11     0.15    18.15     0  07:30        0.15
  J4                   JUNCTION     0.11     0.23    33.23     0  04:10        0.23
  J5                   JUNCTION     0.06     0.12    32.12     0  04:09        0.12
  J6                   JUNCTION     0.06     0.12    25.12     0  06:25        0.12
  J7                   JUNCTION     0.09     0.17    39.17     0  03:57        0.17
  J8                   JUNCTION     0.12     0.21    36.21     0  03:56        0.21
  J9                   JUNCTION     0.11     0.16    29.16     0  04:41        0.16
  Out_to_WWTP          OUTFALL      0.15     0.17     6.17     0  05:39        0.17
  T1                   STORAGE      3.83     5.00    15.00     0  03:17        5.00
  T2                   STORAGE      3.12     5.00    26.00     0  09:09        5.00
  T3                   STORAGE      3.19     4.90    26.90     0  09:32        4.89
  T4                   STORAGE      3.13     4.92    31.92     0  06:14        4.92
  T5                   STORAGE      3.32     4.93    31.93     0  05:41        4.93
  T6                   STORAGE      3.52     5.00    36.00     0  03:41        5.00
  
  
  *******************
  Node Inflow Summary
  *******************
  
  -------------------------------------------------------------------------------------------------
                                  Maximum  Maximum                  Lateral       Total        Flow
                                  Lateral    Total  Time of Max      Inflow      Inflow     Balance
                                   Inflow   Inflow   Occurrence      Volume      Volume       Error
  Node                 Type           CMS      CMS  days hr:min    10^6 ltr    10^6 ltr     Percent
  -------------------------------------------------------------------------------------------------
  CSO10                JUNCTION     0.100    0.100     0  01:45        1.25        1.25       0.025
  CSO7                 JUNCTION     0.055    0.055     0  04:05       0.679       0.679       0.028
  CSO8                 JUNCTION     0.251    0.251     0  02:50        2.57        2.57       0.061
  CSO9                 JUNCTION     0.077    0.077     0  03:55       0.966       0.965       0.076
  J1                   JUNCTION     0.161    0.161     0  01:45         1.9         1.9      -0.059
  J10                  JUNCTION     0.220    0.447     0  02:49        1.86        4.42       0.021
  J11                  JUNCTION     0.000    0.252     0  02:46           0        2.57       0.189
  J12                  JUNCTION     0.000    0.569     0  02:51           0        8.29       7.490
  J13                  JUNCTION     0.272    0.272     0  04:05        2.71        2.71      -0.225
  J14                  JUNCTION     0.000    0.187     0  07:25           0        3.89       0.195
  J15                  JUNCTION     0.000    0.523     0  02:40           0        11.4       0.611
  J16                  JUNCTION     0.338    0.338     0  01:45        3.62        3.62      -0.015
  J17                  JUNCTION     0.000    0.104     0  04:10           0       0.746       0.433
  J18                  JUNCTION     0.000    0.100     0  01:45           0        1.25       0.082
  J19                  JUNCTION     0.000    0.271     0  03:18           0         9.1       0.127
  J2                   JUNCTION     0.000    0.039     0  05:41           0        1.25       0.381
  J3                   JUNCTION     0.000    0.253     0  07:27           0        5.82       0.494
  J4                   JUNCTION     0.000    0.055     0  04:06           0       0.679       0.256
  J5                   JUNCTION     0.071    0.124     0  04:08       0.803        1.48      -0.017
  J6                   JUNCTION     0.000    0.079     0  06:20           0       0.705       0.319
  J7                   JUNCTION     0.000    0.076     0  03:56           0       0.964       0.242
  J8                   JUNCTION     0.345    0.420     0  03:55        4.52        5.48       0.057
  J9                   JUNCTION     0.000    0.175     0  03:42           0        3.64       1.190
  Out_to_WWTP          OUTFALL      0.000    0.271     0  03:19           0        9.09       0.000
  T1                   STORAGE      0.000    0.509     0  02:41           0        11.3       6.142
  T2                   STORAGE      0.000    0.271     0  04:05           0        2.72      54.130
  T3                   STORAGE      0.000    0.552     0  02:55           0        7.72      18.027
  T4                   STORAGE      0.000    0.123     0  04:09           0        1.48      28.553
  T5                   STORAGE      0.000    0.160     0  01:45           0         1.9      20.092
  T6                   STORAGE      0.000    0.417     0  03:56           0        5.48      10.813
  
  
  **********************
  Node Surcharge Summary
  **********************
  
  No nodes were surcharged.
  
  
  *********************
  Node Flooding Summary
  *********************
  
  Flooding refers to all water that overflows a node, whether it ponds or not.
  --------------------------------------------------------------------------
                                                             Total   Maximum
                                 Maximum   Time of Max       Flood    Ponded
                        Hours       Rate    Occurrence      Volume     Depth
  Node                 Flooded       CMS   days hr:min    10^6 ltr    Meters
  --------------------------------------------------------------------------
  T1                      2.25     0.194      0  04:56       1.043     0.000
  T2                      0.91     0.018      0  09:09       0.036     0.000
  T6                      1.64     0.242      0  03:56       0.848     0.000
  
  
  **********************
  Storage Volume Summary
  **********************
  
  --------------------------------------------------------------------------------------------------
                         Average     Avg  Evap Exfil       Maximum     Max    Time of Max    Maximum
                          Volume    Pcnt  Pcnt  Pcnt        Volume    Pcnt     Occurrence    Outflow
  Storage Unit           1000 m3    Full  Loss  Loss       1000 m3    Full    days hr:min        CMS
  --------------------------------------------------------------------------------------------------
  T1                       0.536      77     0     0         0.700     100       0  03:17      0.271
  T2                       0.623      62     0     0         1.000     100       0  09:09      0.104
  T3                       1.660      64     0     0         2.549      98       0  09:32      0.247
  T4                       0.313      63     0     0         0.492      98       0  06:14      0.079
  T5                       0.332      66     0     0         0.493      99       0  05:41      0.039
  T6                       0.422      70     0     0         0.600     100       0  03:41      0.175
  
  
  ***********************
  Outfall Loading Summary
  ***********************
  
  -----------------------------------------------------------
                         Flow       Avg       Max       Total
                         Freq      Flow      Flow      Volume
  Outfall Node           Pcnt       CMS       CMS    10^6 ltr
  -----------------------------------------------------------
  Out_to_WWTP           99.30     0.223     0.271       9.088
  -----------------------------------------------------------
  System                99.30     0.223     0.271       9.088
  
  
  ********************
  Link Flow Summary
  ********************
  
  -----------------------------------------------------------------------------
                                 Maximum  Time of Max   Maximum    Max/    Max/
                                  |Flow|   Occurrence   |Veloc|    Full    Full
  Link                 Type          CMS  days hr:min     m/sec    Flow   Depth
  -----------------------------------------------------------------------------
  C1                   CONDUIT     0.039     0  05:43      1.06    0.01    0.12
  C10                  CONDUIT     0.417     0  03:56      1.62    0.04    0.57
  C11                  CONDUIT     0.244     0  07:30      1.98    0.01    0.10
  C12                  CONDUIT     0.175     0  04:41      1.21    0.01    0.26
  C13                  CONDUIT     0.552     0  02:55      1.62    0.03    0.72
  C14                  CONDUIT     0.271     0  03:19      2.08    0.02    0.09
  C15                  CONDUIT     0.252     0  02:46      2.61    0.80    0.59
  C16                  CONDUIT     0.249     0  02:51      1.42    0.02    0.10
  C17                  CONDUIT     0.444     0  02:50      2.42    0.02    0.24
  C18                  CONDUIT     0.271     0  04:05      3.92    0.01    0.54
  C19                  CONDUIT     0.100     0  04:10      1.14    0.03    0.18
  C2                   CONDUIT     0.078     0  06:25      1.64    0.09    0.23
  C20                  CONDUIT     0.338     0  01:45      3.28    0.01    0.09
  C21                  CONDUIT     0.100     0  01:45      1.61    0.57    0.43
  C22                  CONDUIT     0.099     0  01:47      1.24    0.04    0.22
  C23                  CONDUIT     0.509     0  02:41      1.24    0.06    0.58
  C3                   CONDUIT     0.188     0  07:27      2.16    0.07    0.17
  C4                   CONDUIT     0.160     0  01:45      3.48    0.04    0.56
  C5                   CONDUIT     0.055     0  04:06      1.21    0.93    0.83
  C6                   CONDUIT     0.053     0  04:11      1.25    0.85    0.59
  C7                   CONDUIT     0.123     0  04:09      1.41    0.03    0.56
  C8                   CONDUIT     0.076     0  03:56      1.30    0.96    0.70
  C9                   CONDUIT     0.075     0  03:57      1.10    0.26    0.38
  V1                   ORIFICE     0.271     0  03:18                      1.00
  V2                   ORIFICE     0.104     0  04:10                      1.00
  V3                   ORIFICE     0.187     0  07:25                      1.00
  V4                   ORIFICE     0.079     0  06:20                      1.00
  V5                   ORIFICE     0.039     0  05:41                      1.00
  V6                   ORIFICE     0.175     0  03:42                      1.00
  
  
  ***************************
  Flow Classification Summary
  ***************************
  
  -------------------------------------------------------------------------------------
                      Adjusted    ---------- Fraction of Time in Flow Class ---------- 
                       /Actual         Up    Down  Sub   Sup   Up    Down  Norm  Inlet 
  Conduit               Length    Dry  Dry   Dry   Crit  Crit  Crit  Crit  Ltd   Ctrl  
  -------------------------------------------------------------------------------------
  C1                      1.00   0.00  0.00  0.00  0.35  0.65  0.00  0.00  0.97  0.00
  C10                     1.00   0.00  0.00  0.00  0.98  0.02  0.00  0.00  0.98  0.00
  C11                     1.00   0.00  0.00  0.00  0.26  0.73  0.00  0.00  1.00  0.00
  C12                     1.00   0.00  0.00  0.00  0.87  0.13  0.00  0.00  0.99  0.00
  C13                     1.00   0.00  0.00  0.00  0.88  0.12  0.00  0.00  0.36  0.00
  C14                     1.00   0.00  0.00  0.00  0.00  0.99  0.00  0.00  0.42  0.00
  C15                     1.00   0.00  0.00  0.00  0.00  1.00  0.00  0.00  0.00  0.00
  C16                     1.00   0.00  0.00  0.00  0.24  0.76  0.00  0.00  0.05  0.00
  C17                     1.00   0.00  0.00  0.00  0.51  0.49  0.00  0.00  0.97  0.00
  C18                     1.00   0.00  0.00  0.00  0.84  0.16  0.00  0.00  0.98  0.00
  C19                     1.00   0.00  0.00  0.00  0.99  0.01  0.00  0.00  1.00  0.00
  C2                      1.00   0.00  0.00  0.00  0.73  0.27  0.00  0.00  0.97  0.00
  C20                     1.00   0.00  0.00  0.00  0.46  0.54  0.00  0.00  0.99  0.00
  C21                     1.00   0.00  0.00  0.00  0.00  1.00  0.00  0.00  0.00  0.00
  C22                     1.00   0.00  0.00  0.00  0.90  0.09  0.00  0.00  1.00  0.00
  C23                     1.00   0.00  0.00  0.00  0.93  0.07  0.00  0.00  0.96  0.00
  C3                      1.00   0.00  0.00  0.00  0.04  0.96  0.00  0.00  0.28  0.00
  C4                      1.00   0.00  0.00  0.00  0.97  0.03  0.00  0.00  0.99  0.00
  C5                      1.00   0.00  0.00  0.00  0.89  0.11  0.00  0.00  0.98  0.00
  C6                      1.00   0.00  0.00  0.00  0.01  0.99  0.00  0.00  0.00  0.00
  C7                      1.00   0.00  0.00  0.00  0.94  0.06  0.00  0.00  0.97  0.00
  C8                      1.00   0.00  0.00  0.00  0.12  0.88  0.00  0.00  0.00  0.00
  C9                      1.00   0.00  0.00  0.00  1.00  0.00  0.00  0.00  1.00  0.00
  
  
  *************************
  Conduit Surcharge Summary
  *************************
  
  ----------------------------------------------------------------------------
                                                           Hours        Hours 
                         --------- Hours Full --------   Above Full   Capacity
  Conduit                Both Ends  Upstream  Dnstream   Normal Flow   Limited
  ----------------------------------------------------------------------------
  C10                         0.01      0.01      9.27      0.01         0.01
  C13                         0.01      0.01      8.23      0.01         0.01
  C18                         0.01      0.01      7.89      0.01         0.01
  C23                         0.01      0.01      9.51      0.01         0.01
  C4                          0.01      0.01      9.60      0.01         0.01
  C7                          0.01      0.01      8.78      0.01         0.01
  

  Analysis begun on:  Sun Jul 17 21:19:19 2022
  Analysis ended on:  Sun Jul 17 21:19:21 2022
  Total elapsed time: 00:00:02