
  EPA STORM WATER MANAGEMENT MODEL - VERSION 5.1 (Build 5.3.0.dev0)
  --------------------------------------------------------------

  
  *********************************************************
  NOTE: The summary statistics displayed in this report are
  based on results found at every computational time step,  
  not just on results from each reporting time step.
  *********************************************************
  
  ****************
  Analysis Options
  ****************
  Flow Units ............... CMS
  Process Models:
    Rainfall/Runoff ........ YES
    RDII ................... NO
    Snowmelt ............... NO
    Groundwater ............ NO
    Flow Routing ........... YES
    Ponding Allowed ........ NO
    Water Quality .......... NO
  Infiltration Method ...... HORTON
  Flow Routing Method ...... DYNWAVE
  Surcharge Method ......... EXTRAN
  Starting Date ............ 12/11/2007 21:55:00
  Ending Date .............. 12/12/2007 05:20:00
  Antecedent Dry Days ...... 0.0
  Report Time Step ......... 00:05:00
  Wet Time Step ............ 00:05:00
  Dry Time Step ............ 01:00:00
  Routing Time Step ........ 30.00 sec
  Variable Time Step ....... YES
  Maximum Trials ........... 8
  Number of Threads ........ 1
  Head Tolerance ........... 0.001500 m
  
  
  **************************        Volume         Depth
  Runoff Quantity Continuity     hectare-m            mm
  **************************     ---------       -------
  Total Precipitation ......         1.073         5.955
  Evaporation Loss .........         0.000         0.000
  Infiltration Loss ........         0.000         0.000
  Surface Runoff ...........         1.043         5.790
  Final Storage ............         0.033         0.183
  Continuity Error (%) .....        -0.296
  
  
  **************************        Volume        Volume
  Flow Routing Continuity        hectare-m      10^6 ltr
  **************************     ---------     ---------
  Dry Weather Inflow .......         0.070         0.702
  Wet Weather Inflow .......         1.042        10.424
  Groundwater Inflow .......         0.000         0.000
  RDII Inflow ..............         0.000         0.000
  External Inflow ..........         0.000         0.000
  External Outflow .........         0.457         4.566
  Flooding Loss ............         0.013         0.130
  Evaporation Loss .........         0.000         0.000
  Exfiltration Loss ........         0.000         0.000
  Initial Stored Volume ....         0.000         0.000
  Final Stored Volume ......         0.526         5.256
  Continuity Error (%) .....        10.555
  
  
  *************************
  Highest Continuity Errors
  *************************
  Node T2 (33.96%)
  Node T6 (25.99%)
  Node T4 (22.15%)
  Node T3 (21.17%)
  Node T5 (20.81%)
  
  
  ***************************
  Time-Step Critical Elements
  ***************************
  Link C15 (42.64%)
  
  
  ********************************
  Highest Flow Instability Indexes
  ********************************
  Link C20 (3)
  Link C21 (2)
  Link C4 (2)
  Link C18 (2)
  Link C23 (2)
  
  
  *************************
  Routing Time Step Summary
  *************************
  Minimum Time Step           :     1.37 sec
  Average Time Step           :    26.37 sec
  Maximum Time Step           :    30.00 sec
  Percent in Steady State     :     5.39
  Average Iterations per Step :     2.03
  Percent Not Converging      :     0.00
  
  
  ***************************
  Subcatchment Runoff Summary
  ***************************
  
  ------------------------------------------------------------------------------------------------------------------------------
                            Total      Total      Total      Total     Imperv       Perv      Total       Total     Peak  Runoff
                           Precip      Runon       Evap      Infil     Runoff     Runoff     Runoff      Runoff   Runoff   Coeff
  Subcatchment                 mm         mm         mm         mm         mm         mm         mm    10^6 ltr      CMS
  ------------------------------------------------------------------------------------------------------------------------------
  SC01                       5.27       0.00       0.00       0.00       5.17       0.00       5.17        1.71     0.42   0.982
  SC010                      5.27       0.00       0.00       0.00       5.13       0.00       5.13        0.60     0.13   0.974
  SC02                       6.12       0.00       0.00       0.00       6.02       0.00       6.02        1.37     0.31   0.984
  SC03                       5.81       0.00       0.00       0.00       5.76       0.00       5.76        1.04     0.26   0.991
  SC04                       6.12       0.00       0.00       0.00       5.88       0.00       5.88        0.41     0.07   0.961
  SC05                       5.27       0.00       0.00       0.00       5.16       0.00       5.16        0.81     0.19   0.980
  SC06                       7.03       0.00       0.00       0.00       6.66       0.00       6.66        2.17     0.26   0.948
  SC07                       6.12       0.00       0.00       0.00       5.88       0.00       5.88        0.28     0.05   0.961
  SC08                       5.81       0.00       0.00       0.00       5.67       0.00       5.67        1.59     0.28   0.976
  SC09                       7.03       0.00       0.00       0.00       6.82       0.00       6.82        0.47     0.06   0.970
  
  
  ******************
  Node Depth Summary
  ******************
  
  ---------------------------------------------------------------------------------
                                 Average  Maximum  Maximum  Time of Max    Reported
                                   Depth    Depth      HGL   Occurrence   Max Depth
  Node                 Type       Meters   Meters   Meters  days hr:min      Meters
  ---------------------------------------------------------------------------------
  CSO10                JUNCTION     0.11     0.31    30.31     0  02:45        0.30
  CSO7                 JUNCTION     0.08     0.18    34.18     0  02:50        0.17
  CSO8                 JUNCTION     0.13     0.35    32.35     0  02:50        0.35
  CSO9                 JUNCTION     0.11     0.23    40.23     0  02:50        0.23
  J1                   JUNCTION     0.06     0.15    34.15     0  02:45        0.14
  J10                  JUNCTION     0.09     0.21    29.21     0  02:52        0.21
  J11                  JUNCTION     0.10     0.22    31.22     0  02:52        0.22
  J12                  JUNCTION     0.13     0.24    26.24     0  02:55        0.24
  J13                  JUNCTION     0.06     0.15    29.15     0  02:50        0.15
  J14                  JUNCTION     0.10     0.13    20.13     0  06:28        0.13
  J15                  JUNCTION     0.15     0.26    15.26     0  02:49        0.26
  J16                  JUNCTION     0.06     0.16    30.16     0  02:45        0.16
  J17                  JUNCTION     0.05     0.07    20.07     0  04:46        0.07
  J18                  JUNCTION     0.05     0.13    29.13     0  02:47        0.13
  J19                  JUNCTION     0.13     0.16     8.16     0  04:08        0.16
  J2                   JUNCTION     0.05     0.07    25.07     0  04:08        0.07
  J3                   JUNCTION     0.09     0.12    18.12     0  05:20        0.12
  J4                   JUNCTION     0.10     0.20    33.20     0  02:56        0.20
  J5                   JUNCTION     0.06     0.11    32.11     0  02:55        0.11
  J6                   JUNCTION     0.05     0.06    25.06     0  05:03        0.06
  J7                   JUNCTION     0.08     0.16    39.16     0  02:51        0.16
  J8                   JUNCTION     0.11     0.19    36.19     0  02:51        0.19
  J9                   JUNCTION     0.09     0.11    29.11     0  06:04        0.11
  Out_to_WWTP          OUTFALL      0.13     0.16     6.16     0  04:08        0.16
  T1                   STORAGE      2.49     4.23    14.23     0  04:07        4.23
  T2                   STORAGE      1.70     2.76    23.76     0  04:44        2.76
  T3                   STORAGE      1.76     2.87    24.87     0  06:03        2.87
  T4                   STORAGE      1.52     2.64    29.64     0  04:46        2.64
  T5                   STORAGE      1.54     2.54    29.54     0  04:06        2.54
  T6                   STORAGE      3.11     5.00    36.00     0  04:00        5.00
  
  
  *******************
  Node Inflow Summary
  *******************
  
  -------------------------------------------------------------------------------------------------
                                  Maximum  Maximum                  Lateral       Total        Flow
                                  Lateral    Total  Time of Max      Inflow      Inflow     Balance
                                   Inflow   Inflow   Occurrence      Volume      Volume       Error
  Node                 Type           CMS      CMS  days hr:min    10^6 ltr    10^6 ltr     Percent
  -------------------------------------------------------------------------------------------------
  CSO10                JUNCTION     0.131    0.131     0  02:45       0.629        0.63       0.049
  CSO7                 JUNCTION     0.048    0.048     0  02:50       0.335       0.336       0.099
  CSO8                 JUNCTION     0.284    0.284     0  02:50        1.59        1.59       0.007
  CSO9                 JUNCTION     0.065    0.065     0  02:50       0.508       0.508       0.105
  J1                   JUNCTION     0.194    0.194     0  02:45       0.912       0.913       0.035
  J10                  JUNCTION     0.263    0.493     0  02:50        1.11         2.7       0.109
  J11                  JUNCTION     0.000    0.283     0  02:50           0        1.59       0.222
  J12                  JUNCTION     0.000    0.538     0  02:52           0        4.13       0.440
  J13                  JUNCTION     0.312    0.312     0  02:50        1.46        1.46      -0.434
  J14                  JUNCTION     0.000    0.093     0  06:03           0        1.77       0.343
  J15                  JUNCTION     0.000    0.643     0  02:46           0        5.55       1.356
  J16                  JUNCTION     0.423    0.423     0  02:45        1.81        1.81       0.029
  J17                  JUNCTION     0.000    0.025     0  04:44           0       0.475       1.084
  J18                  JUNCTION     0.000    0.129     0  02:45           0       0.629       0.298
  J19                  JUNCTION     0.000    0.249     0  04:07           0        4.58       0.226
  J2                   JUNCTION     0.000    0.028     0  04:06           0       0.535       0.732
  J3                   JUNCTION     0.000    0.141     0  05:18           0        2.67       1.159
  J4                   JUNCTION     0.000    0.048     0  02:51           0       0.335       0.589
  J5                   JUNCTION     0.068    0.110     0  02:54        0.43       0.765      -0.032
  J6                   JUNCTION     0.000    0.020     0  04:46           0       0.376       0.840
  J7                   JUNCTION     0.000    0.065     0  02:50           0       0.507       1.125
  J8                   JUNCTION     0.262    0.325     0  02:50        2.35        2.85       0.273
  J9                   JUNCTION     0.000    0.075     0  04:00           0        1.45       1.228
  Out_to_WWTP          OUTFALL      0.000    0.249     0  04:08           0        4.57       0.000
  T1                   STORAGE      0.000    0.600     0  02:49           0        5.47       9.614
  T2                   STORAGE      0.000    0.305     0  02:51           0        1.47      51.423
  T3                   STORAGE      0.000    0.519     0  02:55           0        4.11      26.856
  T4                   STORAGE      0.000    0.109     0  02:55           0       0.765      28.448
  T5                   STORAGE      0.000    0.191     0  02:45           0       0.913      26.273
  T6                   STORAGE      0.000    0.322     0  02:51           0        2.84      35.114
  
  
  **********************
  Node Surcharge Summary
  **********************
  
  No nodes were surcharged.
  
  
  *********************
  Node Flooding Summary
  *********************
  
  Flooding refers to all water that overflows a node, whether it ponds or not.
  --------------------------------------------------------------------------
                                                             Total   Maximum
                                 Maximum   Time of Max       Flood    Ponded
                        Hours       Rate    Occurrence      Volume     Depth
  Node                 Flooded       CMS   days hr:min    10^6 ltr    Meters
  --------------------------------------------------------------------------
  T6                      1.52     0.069      0  04:00       0.130     0.000
  
  
  **********************
  Storage Volume Summary
  **********************
  
  --------------------------------------------------------------------------------------------------
                         Average     Avg  Evap Exfil       Maximum     Max    Time of Max    Maximum
                          Volume    Pcnt  Pcnt  Pcnt        Volume    Pcnt     Occurrence    Outflow
  Storage Unit           1000 m3    Full  Loss  Loss       1000 m3    Full    days hr:min        CMS
  --------------------------------------------------------------------------------------------------
  T1                       0.348      50     0     0         0.592      85       0  04:07      0.249
  T2                       0.341      34     0     0         0.552      55       0  04:44      0.025
  T3                       0.915      35     0     0         1.490      57       0  06:03      0.093
  T4                       0.152      30     0     0         0.264      53       0  04:46      0.020
  T5                       0.154      31     0     0         0.254      51       0  04:06      0.028
  T6                       0.374      62     0     0         0.600     100       0  04:00      0.075
  
  
  ***********************
  Outfall Loading Summary
  ***********************
  
  -----------------------------------------------------------
                         Flow       Avg       Max       Total
                         Freq      Flow      Flow      Volume
  Outfall Node           Pcnt       CMS       CMS    10^6 ltr
  -----------------------------------------------------------
  Out_to_WWTP           98.71     0.172     0.249       4.566
  -----------------------------------------------------------
  System                98.71     0.172     0.249       4.566
  
  
  ********************
  Link Flow Summary
  ********************
  
  -----------------------------------------------------------------------------
                                 Maximum  Time of Max   Maximum    Max/    Max/
                                  |Flow|   Occurrence   |Veloc|    Full    Full
  Link                 Type          CMS  days hr:min     m/sec    Flow   Depth
  -----------------------------------------------------------------------------
  C1                   CONDUIT     0.028     0  04:08      0.77    0.01    0.09
  C10                  CONDUIT     0.322     0  02:51      1.68    0.03    0.56
  C11                  CONDUIT     0.141     0  05:20      1.55    0.01    0.09
  C12                  CONDUIT     0.075     0  05:27      1.13    0.01    0.08
  C13                  CONDUIT     0.519     0  02:55      2.14    0.03    0.55
  C14                  CONDUIT     0.249     0  04:08      2.03    0.01    0.08
  C15                  CONDUIT     0.283     0  02:50      2.66    0.90    0.63
  C16                  CONDUIT     0.273     0  02:52      1.46    0.03    0.11
  C17                  CONDUIT     0.484     0  02:52      2.61    0.02    0.11
  C18                  CONDUIT     0.305     0  02:51      3.03    0.01    0.53
  C19                  CONDUIT     0.025     0  05:02      0.54    0.01    0.16
  C2                   CONDUIT     0.020     0  05:04      0.75    0.02    0.15
  C20                  CONDUIT     0.416     0  02:45      2.88    0.01    0.10
  C21                  CONDUIT     0.129     0  02:45      1.79    0.74    0.50
  C22                  CONDUIT     0.126     0  02:47      1.34    0.06    0.24
  C23                  CONDUIT     0.600     0  02:49      1.80    0.07    0.59
  C3                   CONDUIT     0.093     0  06:04      1.65    0.04    0.13
  C4                   CONDUIT     0.191     0  02:45      5.48    0.05    0.57
  C5                   CONDUIT     0.048     0  02:51      1.24    0.81    0.73
  C6                   CONDUIT     0.045     0  02:56      1.20    0.72    0.52
  C7                   CONDUIT     0.109     0  02:55      1.08    0.03    0.56
  C8                   CONDUIT     0.065     0  02:50      2.12    0.82    0.61
  C9                   CONDUIT     0.064     0  02:51      1.06    0.22    0.35
  V1                   ORIFICE     0.249     0  04:07                      1.00
  V2                   ORIFICE     0.025     0  04:44                      0.24
  V3                   ORIFICE     0.093     0  06:03                      0.65
  V4                   ORIFICE     0.020     0  04:46                      0.35
  V5                   ORIFICE     0.028     0  04:06                      1.00
  V6                   ORIFICE     0.075     0  04:00                      0.43
  
  
  ***************************
  Flow Classification Summary
  ***************************
  
  -------------------------------------------------------------------------------------
                      Adjusted    ---------- Fraction of Time in Flow Class ---------- 
                       /Actual         Up    Down  Sub   Sup   Up    Down  Norm  Inlet 
  Conduit               Length    Dry  Dry   Dry   Crit  Crit  Crit  Crit  Ltd   Ctrl  
  -------------------------------------------------------------------------------------
  C1                      1.00   0.00  0.00  0.00  0.67  0.33  0.00  0.00  0.92  0.00
  C10                     1.00   0.00  0.00  0.00  0.85  0.15  0.00  0.00  0.96  0.00
  C11                     1.00   0.00  0.00  0.00  0.32  0.68  0.00  0.00  1.00  0.00
  C12                     1.00   0.00  0.00  0.00  0.60  0.39  0.00  0.00  0.77  0.00
  C13                     1.00   0.00  0.00  0.00  0.82  0.18  0.00  0.00  0.82  0.00
  C14                     1.00   0.01  0.00  0.00  0.01  0.98  0.00  0.00  0.18  0.00
  C15                     1.00   0.09  0.00  0.00  0.00  0.91  0.00  0.00  0.00  0.00
  C16                     1.00   0.00  0.09  0.00  0.23  0.67  0.00  0.00  0.22  0.00
  C17                     1.00   0.00  0.00  0.00  0.36  0.64  0.00  0.00  0.95  0.00
  C18                     1.00   0.00  0.00  0.00  0.85  0.15  0.00  0.00  0.96  0.00
  C19                     1.00   0.00  0.00  0.00  1.00  0.00  0.00  0.00  1.00  0.00
  C2                      1.00   0.00  0.00  0.00  0.88  0.11  0.00  0.00  0.99  0.00
  C20                     1.00   0.00  0.00  0.00  0.48  0.52  0.00  0.00  0.98  0.00
  C21                     1.00   0.00  0.00  0.00  0.00  1.00  0.00  0.00  0.00  0.00
  C22                     1.00   0.00  0.00  0.00  0.83  0.17  0.00  0.00  1.00  0.00
  C23                     1.00   0.00  0.00  0.00  0.85  0.15  0.00  0.00  0.90  0.00
  C3                      1.00   0.00  0.01  0.00  0.08  0.91  0.00  0.00  0.13  0.00
  C4                      1.00   0.00  0.00  0.00  0.86  0.14  0.00  0.00  0.97  0.00
  C5                      1.00   0.00  0.00  0.00  0.78  0.22  0.00  0.00  0.97  0.00
  C6                      1.00   0.00  0.00  0.00  0.01  0.99  0.00  0.00  0.00  0.00
  C7                      1.00   0.00  0.00  0.00  0.84  0.16  0.00  0.00  0.94  0.00
  C8                      1.00   0.00  0.00  0.00  0.06  0.94  0.00  0.00  0.00  0.00
  C9                      1.00   0.00  0.00  0.00  0.98  0.02  0.00  0.00  1.00  0.00
  
  
  *************************
  Conduit Surcharge Summary
  *************************
  
  ----------------------------------------------------------------------------
                                                           Hours        Hours 
                         --------- Hours Full --------   Above Full   Capacity
  Conduit                Both Ends  Upstream  Dnstream   Normal Flow   Limited
  ----------------------------------------------------------------------------
  C10                         0.01      0.01      5.47      0.01         0.01
  C13                         0.01      0.01      4.15      0.01         0.01
  C18                         0.01      0.01      4.21      0.01         0.01
  C23                         0.01      0.01      4.77      0.01         0.01
  C4                          0.01      0.01      4.78      0.01         0.01
  C7                          0.01      0.01      4.62      0.01         0.01
  

  Analysis begun on:  Sun Jul 17 20:26:20 2022
  Analysis ended on:  Sun Jul 17 20:26:20 2022
  Total elapsed time: < 1 sec