
  EPA STORM WATER MANAGEMENT MODEL - VERSION 5.1 (Build 5.3.0.dev0)
  --------------------------------------------------------------

  
  *********************************************************
  NOTE: The summary statistics displayed in this report are
  based on results found at every computational time step,  
  not just on results from each reporting time step.
  *********************************************************
  
  ****************
  Analysis Options
  ****************
  Flow Units ............... CMS
  Process Models:
    Rainfall/Runoff ........ YES
    RDII ................... NO
    Snowmelt ............... NO
    Groundwater ............ NO
    Flow Routing ........... YES
    Ponding Allowed ........ NO
    Water Quality .......... NO
  Infiltration Method ...... HORTON
  Flow Routing Method ...... DYNWAVE
  Surcharge Method ......... EXTRAN
  Starting Date ............ 06/03/2009 21:25:00
  Ending Date .............. 06/04/2009 10:30:00
  Antecedent Dry Days ...... 0.0
  Report Time Step ......... 00:05:00
  Wet Time Step ............ 00:05:00
  Dry Time Step ............ 01:00:00
  Routing Time Step ........ 30.00 sec
  Variable Time Step ....... YES
  Maximum Trials ........... 8
  Number of Threads ........ 1
  Head Tolerance ........... 0.001500 m
  
  
  **************************        Volume         Depth
  Runoff Quantity Continuity     hectare-m            mm
  **************************     ---------       -------
  Total Precipitation ......         1.423         7.896
  Evaporation Loss .........         0.000         0.000
  Infiltration Loss ........         0.000         0.000
  Surface Runoff ...........         1.394         7.735
  Final Storage ............         0.032         0.179
  Continuity Error (%) .....        -0.232
  
  
  **************************        Volume        Volume
  Flow Routing Continuity        hectare-m      10^6 ltr
  **************************     ---------     ---------
  Dry Weather Inflow .......         0.291         2.909
  Wet Weather Inflow .......         1.393        13.927
  Groundwater Inflow .......         0.000         0.000
  RDII Inflow ..............         0.000         0.000
  External Inflow ..........         0.000         0.000
  External Outflow .........         0.853         8.528
  Flooding Loss ............         0.000         0.002
  Evaporation Loss .........         0.000         0.000
  Exfiltration Loss ........         0.000         0.000
  Initial Stored Volume ....         0.000         0.000
  Final Stored Volume ......         0.649         6.488
  Continuity Error (%) .....        10.805
  
  
  *************************
  Highest Continuity Errors
  *************************
  Node T2 (24.70%)
  Node T6 (20.61%)
  Node T3 (20.52%)
  Node T5 (18.86%)
  Node T4 (15.59%)
  
  
  ***************************
  Time-Step Critical Elements
  ***************************
  Link C15 (45.12%)
  Link C21 (1.76%)
  
  
  ********************************
  Highest Flow Instability Indexes
  ********************************
  Link C13 (5)
  Link V3 (5)
  Link C3 (5)
  Link C11 (4)
  Link C23 (4)
  
  
  *************************
  Routing Time Step Summary
  *************************
  Minimum Time Step           :     0.11 sec
  Average Time Step           :    26.64 sec
  Maximum Time Step           :    30.00 sec
  Percent in Steady State     :     2.30
  Average Iterations per Step :     2.07
  Percent Not Converging      :     0.00
  
  
  ***************************
  Subcatchment Runoff Summary
  ***************************
  
  ------------------------------------------------------------------------------------------------------------------------------
                            Total      Total      Total      Total     Imperv       Perv      Total       Total     Peak  Runoff
                           Precip      Runon       Evap      Infil     Runoff     Runoff     Runoff      Runoff   Runoff   Coeff
  Subcatchment                 mm         mm         mm         mm         mm         mm         mm    10^6 ltr      CMS
  ------------------------------------------------------------------------------------------------------------------------------
  SC01                       8.09       0.00       0.00       0.00       7.98       0.00       7.98        2.63     0.43   0.987
  SC010                      8.09       0.00       0.00       0.00       7.94       0.00       7.94        0.93     0.13   0.981
  SC02                       6.20       0.00       0.00       0.00       6.10       0.00       6.10        1.39     0.21   0.984
  SC03                       9.13       0.00       0.00       0.00       9.08       0.00       9.08        1.64     0.33   0.995
  SC04                       6.20       0.00       0.00       0.00       5.97       0.00       5.97        0.41     0.04   0.962
  SC05                       8.09       0.00       0.00       0.00       7.97       0.00       7.97        1.24     0.20   0.985
  SC06                       7.64       0.00       0.00       0.00       7.31       0.00       7.31        2.38     0.21   0.957
  SC07                       6.20       0.00       0.00       0.00       5.97       0.00       5.97        0.28     0.03   0.963
  SC08                       9.13       0.00       0.00       0.00       8.98       0.00       8.98        2.52     0.28   0.984
  SC09                       7.64       0.00       0.00       0.00       7.46       0.00       7.46        0.51     0.07   0.976
  
  
  ******************
  Node Depth Summary
  ******************
  
  ---------------------------------------------------------------------------------
                                 Average  Maximum  Maximum  Time of Max    Reported
                                   Depth    Depth      HGL   Occurrence   Max Depth
  Node                 Type       Meters   Meters   Meters  days hr:min      Meters
  ---------------------------------------------------------------------------------
  CSO10                JUNCTION     0.11     0.32    30.32     0  02:20        0.31
  CSO7                 JUNCTION     0.07     0.12    34.12     0  09:05        0.12
  CSO8                 JUNCTION     0.13     0.36    32.36     0  02:25        0.34
  CSO9                 JUNCTION     0.09     0.24    40.24     0  02:25        0.23
  J1                   JUNCTION     0.06     0.15    34.15     0  02:20        0.15
  J10                  JUNCTION     0.09     0.22    29.22     0  02:28        0.22
  J11                  JUNCTION     0.10     0.22    31.22     0  02:35        0.22
  J12                  JUNCTION     0.18     0.50    26.50     0  11:01        0.49
  J13                  JUNCTION     0.05     0.12    29.12     0  02:25        0.12
  J14                  JUNCTION     0.10     0.19    20.19     0  12:02        0.19
  J15                  JUNCTION     0.15     0.26    15.26     0  02:25        0.26
  J16                  JUNCTION     0.06     0.16    30.16     0  02:20        0.16
  J17                  JUNCTION     0.05     0.12    20.12     0  10:15        0.12
  J18                  JUNCTION     0.05     0.13    29.13     0  02:22        0.13
  J19                  JUNCTION     0.14     0.17     8.17     0  11:37        0.17
  J2                   JUNCTION     0.06     0.07    25.07     0  10:31        0.07
  J3                   JUNCTION     0.10     0.15    18.15     0  11:17        0.15
  J4                   JUNCTION     0.09     0.15    33.15     0  09:09        0.15
  J5                   JUNCTION     0.05     0.09    32.09     0  02:31        0.08
  J6                   JUNCTION     0.05     0.10    25.10     0  10:21        0.10
  J7                   JUNCTION     0.07     0.16    39.16     0  02:28        0.15
  J8                   JUNCTION     0.09     0.17    36.17     0  02:27        0.17
  J9                   JUNCTION     0.09     0.16    29.16     0  10:51        0.16
  Out_to_WWTP          OUTFALL      0.14     0.17     6.17     0  11:29        0.17
  T1                   STORAGE      2.73     5.00    15.00     0  11:36        5.00
  T2                   STORAGE      1.03     2.15    23.15     0  10:10        2.15
  T3                   STORAGE      2.23     4.51    26.51     0  11:14        4.51
  T4                   STORAGE      0.93     2.20    29.20     0  13:05        2.20
  T5                   STORAGE      1.86     3.48    30.48     0  10:28        3.48
  T6                   STORAGE      1.92     4.61    35.61     0  10:40        4.61
  
  
  *******************
  Node Inflow Summary
  *******************
  
  -------------------------------------------------------------------------------------------------
                                  Maximum  Maximum                  Lateral       Total        Flow
                                  Lateral    Total  Time of Max      Inflow      Inflow     Balance
                                   Inflow   Inflow   Occurrence      Volume      Volume       Error
  Node                 Type           CMS      CMS  days hr:min    10^6 ltr    10^6 ltr     Percent
  -------------------------------------------------------------------------------------------------
  CSO10                JUNCTION     0.135    0.135     0  02:20        1.04        1.04       0.002
  CSO7                 JUNCTION     0.027    0.027     0  09:05       0.501       0.501       0.106
  CSO8                 JUNCTION     0.280    0.280     0  02:25        2.68        2.69       0.006
  CSO9                 JUNCTION     0.067    0.067     0  02:25       0.661       0.661       0.065
  J1                   JUNCTION     0.198    0.198     0  02:20        1.66        1.66       0.012
  J10                  JUNCTION     0.331    0.516     0  02:27        1.92         4.6      -0.001
  J11                  JUNCTION     0.000    0.281     0  02:25           0        2.69       0.167
  J12                  JUNCTION     0.000    0.535     0  02:29           0        7.33       0.559
  J13                  JUNCTION     0.208    0.208     0  02:25        1.74        1.74      -0.298
  J14                  JUNCTION     0.000    0.180     0  11:15           0        3.24       0.182
  J15                  JUNCTION     0.000    0.604     0  02:21           0        9.84       0.745
  J16                  JUNCTION     0.429    0.429     0  02:20        3.05        3.05      -0.022
  J17                  JUNCTION     0.000    0.092     0  10:10           0       0.895       0.358
  J18                  JUNCTION     0.000    0.134     0  02:21           0        1.04       0.117
  J19                  JUNCTION     0.000    0.271     0  11:36           0        8.54       0.136
  J2                   JUNCTION     0.000    0.033     0  10:29           0        1.04       0.446
  J3                   JUNCTION     0.000    0.237     0  09:15           0        4.89       0.525
  J4                   JUNCTION     0.000    0.027     0  09:06           0         0.5       0.878
  J5                   JUNCTION     0.037    0.061     0  02:30       0.507           1       0.152
  J6                   JUNCTION     0.000    0.052     0  10:15           0       0.626       0.125
  J7                   JUNCTION     0.000    0.066     0  02:25           0       0.661       0.522
  J8                   JUNCTION     0.214    0.270     0  02:25        3.08        3.74       0.079
  J9                   JUNCTION     0.000    0.168     0  10:40           0        2.43      -0.110
  Out_to_WWTP          OUTFALL      0.000    0.271     0  11:37           0        8.53       0.000
  T1                   STORAGE      0.000    0.579     0  02:25           0        9.77       7.340
  T2                   STORAGE      0.000    0.206     0  02:25           0        1.74      32.803
  T3                   STORAGE      0.000    0.562     0  10:45           0        7.29      25.822
  T4                   STORAGE      0.000    0.061     0  02:31           0           1      18.469
  T5                   STORAGE      0.000    0.197     0  02:21           0        1.66      23.238
  T6                   STORAGE      0.000    0.266     0  02:28           0        3.74      25.953
  
  
  **********************
  Node Surcharge Summary
  **********************
  
  No nodes were surcharged.
  
  
  *********************
  Node Flooding Summary
  *********************
  
  Flooding refers to all water that overflows a node, whether it ponds or not.
  --------------------------------------------------------------------------
                                                             Total   Maximum
                                 Maximum   Time of Max       Flood    Ponded
                        Hours       Rate    Occurrence      Volume     Depth
  Node                 Flooded       CMS   days hr:min    10^6 ltr    Meters
  --------------------------------------------------------------------------
  T1                      0.04     0.014      0  11:36       0.002     0.000
  
  
  **********************
  Storage Volume Summary
  **********************
  
  --------------------------------------------------------------------------------------------------
                         Average     Avg  Evap Exfil       Maximum     Max    Time of Max    Maximum
                          Volume    Pcnt  Pcnt  Pcnt        Volume    Pcnt     Occurrence    Outflow
  Storage Unit           1000 m3    Full  Loss  Loss       1000 m3    Full    days hr:min        CMS
  --------------------------------------------------------------------------------------------------
  T1                       0.383      55     0     0         0.700     100       0  11:36      0.271
  T2                       0.207      21     0     0         0.431      43       0  10:10      0.092
  T3                       1.160      45     0     0         2.345      90       0  11:14      0.379
  T4                       0.093      19     0     0         0.220      44       0  13:05      0.052
  T5                       0.186      37     0     0         0.348      70       0  10:28      0.033
  T6                       0.231      38     0     0         0.554      92       0  10:40      0.168
  
  
  ***********************
  Outfall Loading Summary
  ***********************
  
  -----------------------------------------------------------
                         Flow       Avg       Max       Total
                         Freq      Flow      Flow      Volume
  Outfall Node           Pcnt       CMS       CMS    10^6 ltr
  -----------------------------------------------------------
  Out_to_WWTP           99.26     0.185     0.271       8.528
  -----------------------------------------------------------
  System                99.26     0.185     0.271       8.528
  
  
  ********************
  Link Flow Summary
  ********************
  
  -----------------------------------------------------------------------------
                                 Maximum  Time of Max   Maximum    Max/    Max/
                                  |Flow|   Occurrence   |Veloc|    Full    Full
  Link                 Type          CMS  days hr:min     m/sec    Flow   Depth
  -----------------------------------------------------------------------------
  C1                   CONDUIT     0.033     0  10:31      1.02    0.01    0.11
  C10                  CONDUIT     0.266     0  02:28      1.68    0.03    0.55
  C11                  CONDUIT     0.225     0  11:17      1.95    0.01    0.09
  C12                  CONDUIT     0.165     0  10:52      1.22    0.01    0.16
  C13                  CONDUIT     0.562     0  10:45      2.48    0.03    0.63
  C14                  CONDUIT     0.271     0  11:37      2.08    0.02    0.09
  C15                  CONDUIT     0.281     0  02:25      2.79    0.89    0.60
  C16                  CONDUIT     0.254     0  02:36      1.43    0.02    0.11
  C17                  CONDUIT     0.517     0  02:29      2.82    0.03    0.15
  C18                  CONDUIT     0.206     0  02:25      3.03    0.01    0.52
  C19                  CONDUIT     0.089     0  10:30      1.19    0.03    0.16
  C2                   CONDUIT     0.052     0  10:22      1.51    0.06    0.20
  C20                  CONDUIT     0.426     0  02:21      2.88    0.01    0.10
  C21                  CONDUIT     0.134     0  02:21      1.79    0.77    0.51
  C22                  CONDUIT     0.132     0  02:23      1.42    0.06    0.24
  C23                  CONDUIT     0.579     0  02:25      1.27    0.06    0.59
  C3                   CONDUIT     0.181     0  12:03      2.26    0.07    0.17
  C4                   CONDUIT     0.197     0  02:21      5.48    0.05    0.57
  C5                   CONDUIT     0.027     0  09:06      1.24    0.46    0.52
  C6                   CONDUIT     0.026     0  09:10      1.06    0.42    0.38
  C7                   CONDUIT     0.061     0  02:31      1.22    0.01    0.54
  C8                   CONDUIT     0.066     0  02:25      2.12    0.83    0.61
  C9                   CONDUIT     0.062     0  02:28      1.11    0.21    0.33
  V1                   ORIFICE     0.271     0  11:36                      1.00
  V2                   ORIFICE     0.092     0  10:10                      1.00
  V3                   ORIFICE     0.180     0  11:15                      1.00
  V4                   ORIFICE     0.052     0  10:15                      1.00
  V5                   ORIFICE     0.033     0  10:29                      1.00
  V6                   ORIFICE     0.168     0  10:40                      1.00
  
  
  ***************************
  Flow Classification Summary
  ***************************
  
  -------------------------------------------------------------------------------------
                      Adjusted    ---------- Fraction of Time in Flow Class ---------- 
                       /Actual         Up    Down  Sub   Sup   Up    Down  Norm  Inlet 
  Conduit               Length    Dry  Dry   Dry   Crit  Crit  Crit  Crit  Ltd   Ctrl  
  -------------------------------------------------------------------------------------
  C1                      1.00   0.00  0.00  0.00  0.43  0.57  0.00  0.00  0.96  0.00
  C10                     1.00   0.00  0.00  0.00  0.95  0.05  0.00  0.00  0.98  0.00
  C11                     1.00   0.00  0.00  0.00  0.24  0.76  0.00  0.00  1.00  0.00
  C12                     1.00   0.00  0.00  0.00  0.74  0.26  0.00  0.00  0.91  0.00
  C13                     1.00   0.00  0.00  0.00  0.84  0.16  0.00  0.00  0.64  0.00
  C14                     1.00   0.00  0.00  0.00  0.01  0.99  0.00  0.00  0.69  0.00
  C15                     1.00   0.14  0.00  0.00  0.00  0.86  0.00  0.00  0.00  0.00
  C16                     1.00   0.00  0.14  0.00  0.09  0.77  0.00  0.00  0.07  0.00
  C17                     1.00   0.00  0.00  0.00  0.37  0.63  0.00  0.00  0.96  0.00
  C18                     1.00   0.00  0.00  0.00  0.87  0.13  0.00  0.00  0.98  0.00
  C19                     1.00   0.00  0.00  0.00  0.90  0.10  0.00  0.00  1.00  0.00
  C2                      1.00   0.00  0.00  0.00  0.68  0.32  0.00  0.00  0.99  0.00
  C20                     1.00   0.00  0.00  0.00  0.56  0.44  0.00  0.00  0.99  0.00
  C21                     1.00   0.00  0.00  0.00  0.00  1.00  0.00  0.00  0.00  0.00
  C22                     1.00   0.00  0.00  0.00  0.91  0.09  0.00  0.00  1.00  0.00
  C23                     1.00   0.00  0.00  0.00  0.89  0.11  0.00  0.00  0.96  0.00
  C3                      1.00   0.00  0.00  0.00  0.08  0.92  0.00  0.00  0.39  0.00
  C4                      1.00   0.00  0.00  0.00  0.96  0.04  0.00  0.00  0.98  0.00
  C5                      1.00   0.00  0.00  0.00  0.85  0.15  0.00  0.00  0.97  0.00
  C6                      1.00   0.00  0.00  0.00  0.02  0.98  0.00  0.00  0.00  0.00
  C7                      1.00   0.00  0.00  0.00  0.95  0.05  0.00  0.00  0.97  0.00
  C8                      1.00   0.00  0.00  0.00  0.10  0.90  0.00  0.00  0.01  0.00
  C9                      1.00   0.00  0.00  0.00  0.98  0.02  0.00  0.00  1.00  0.00
  
  
  *************************
  Conduit Surcharge Summary
  *************************
  
  ----------------------------------------------------------------------------
                                                           Hours        Hours 
                         --------- Hours Full --------   Above Full   Capacity
  Conduit                Both Ends  Upstream  Dnstream   Normal Flow   Limited
  ----------------------------------------------------------------------------
  C10                         0.01      0.01      4.87      0.01         0.01
  C13                         0.01      0.01      5.81      0.01         0.01
  C18                         0.01      0.01      3.37      0.01         0.01
  C23                         0.01      0.01     10.66      0.01         0.01
  C4                          0.01      0.01     10.73      0.01         0.01
  C7                          0.01      0.01      4.68      0.01         0.01
  

  Analysis begun on:  Sun Jul 17 21:33:33 2022
  Analysis ended on:  Sun Jul 17 21:33:33 2022
  Total elapsed time: < 1 sec