
  EPA STORM WATER MANAGEMENT MODEL - VERSION 5.1 (Build 5.3.0.dev0)
  --------------------------------------------------------------

  
  *********************************************************
  NOTE: The summary statistics displayed in this report are
  based on results found at every computational time step,  
  not just on results from each reporting time step.
  *********************************************************
  
  ****************
  Analysis Options
  ****************
  Flow Units ............... CMS
  Process Models:
    Rainfall/Runoff ........ YES
    RDII ................... NO
    Snowmelt ............... NO
    Groundwater ............ NO
    Flow Routing ........... YES
    Ponding Allowed ........ NO
    Water Quality .......... NO
  Infiltration Method ...... HORTON
  Flow Routing Method ...... DYNWAVE
  Surcharge Method ......... EXTRAN
  Starting Date ............ 03/07/2009 09:45:00
  Ending Date .............. 03/07/2009 23:25:00
  Antecedent Dry Days ...... 0.0
  Report Time Step ......... 00:05:00
  Wet Time Step ............ 00:05:00
  Dry Time Step ............ 01:00:00
  Routing Time Step ........ 30.00 sec
  Variable Time Step ....... YES
  Maximum Trials ........... 8
  Number of Threads ........ 1
  Head Tolerance ........... 0.001500 m
  
  
  **************************        Volume         Depth
  Runoff Quantity Continuity     hectare-m            mm
  **************************     ---------       -------
  Total Precipitation ......         1.864        10.346
  Evaporation Loss .........         0.000         0.000
  Infiltration Loss ........         0.000         0.000
  Surface Runoff ...........         1.836        10.191
  Final Storage ............         0.029         0.163
  Continuity Error (%) .....        -0.080
  
  
  **************************        Volume        Volume
  Flow Routing Continuity        hectare-m      10^6 ltr
  **************************     ---------     ---------
  Dry Weather Inflow .......         0.529         5.293
  Wet Weather Inflow .......         1.836        18.361
  Groundwater Inflow .......         0.000         0.000
  RDII Inflow ..............         0.000         0.000
  External Inflow ..........         0.000         0.000
  External Outflow .........         1.004        10.042
  Flooding Loss ............         0.374         3.736
  Evaporation Loss .........         0.000         0.000
  Exfiltration Loss ........         0.000         0.000
  Initial Stored Volume ....         0.000         0.000
  Final Stored Volume ......         0.750         7.501
  Continuity Error (%) .....        10.041
  
  
  *************************
  Highest Continuity Errors
  *************************
  Node T2 (27.09%)
  Node T4 (19.96%)
  Node T5 (15.90%)
  Node T6 (14.94%)
  Node T3 (14.16%)
  
  
  ***************************
  Time-Step Critical Elements
  ***************************
  Link C15 (54.68%)
  
  
  ********************************
  Highest Flow Instability Indexes
  ********************************
  Link C13 (6)
  Link C3 (3)
  Link C11 (3)
  Link C23 (2)
  Link V3 (2)
  
  
  *************************
  Routing Time Step Summary
  *************************
  Minimum Time Step           :     0.84 sec
  Average Time Step           :    25.98 sec
  Maximum Time Step           :    30.00 sec
  Percent in Steady State     :     5.06
  Average Iterations per Step :     2.01
  Percent Not Converging      :     0.00
  
  
  ***************************
  Subcatchment Runoff Summary
  ***************************
  
  ------------------------------------------------------------------------------------------------------------------------------
                            Total      Total      Total      Total     Imperv       Perv      Total       Total     Peak  Runoff
                           Precip      Runon       Evap      Infil     Runoff     Runoff     Runoff      Runoff   Runoff   Coeff
  Subcatchment                 mm         mm         mm         mm         mm         mm         mm    10^6 ltr      CMS
  ------------------------------------------------------------------------------------------------------------------------------
  SC01                       9.82       0.00       0.00       0.00       9.73       0.00       9.73        3.21     0.30   0.990
  SC010                      9.82       0.00       0.00       0.00       9.69       0.00       9.69        1.14     0.10   0.987
  SC02                      10.00       0.00       0.00       0.00       9.89       0.00       9.89        2.25     0.22   0.989
  SC03                      11.07       0.00       0.00       0.00      11.00       0.00      11.00        1.98     0.22   0.994
  SC04                      10.00       0.00       0.00       0.00       9.76       0.00       9.76        0.67     0.06   0.976
  SC05                       9.82       0.00       0.00       0.00       9.72       0.00       9.72        1.52     0.14   0.990
  SC06                      10.61       0.00       0.00       0.00      10.30       0.00      10.30        3.35     0.32   0.971
  SC07                      10.00       0.00       0.00       0.00       9.77       0.00       9.77        0.46     0.04   0.977
  SC08                      11.07       0.00       0.00       0.00      10.93       0.00      10.93        3.06     0.32   0.987
  SC09                      10.61       0.00       0.00       0.00      10.43       0.00      10.43        0.72     0.08   0.983
  
  
  ******************
  Node Depth Summary
  ******************
  
  ---------------------------------------------------------------------------------
                                 Average  Maximum  Maximum  Time of Max    Reported
                                   Depth    Depth      HGL   Occurrence   Max Depth
  Node                 Type       Meters   Meters   Meters  days hr:min      Meters
  ---------------------------------------------------------------------------------
  CSO10                JUNCTION     0.12     0.27    30.27     0  08:15        0.27
  CSO7                 JUNCTION     0.10     0.18    34.18     0  08:20        0.18
  CSO8                 JUNCTION     0.15     0.40    32.40     0  08:20        0.39
  CSO9                 JUNCTION     0.12     0.31    40.31     0  08:22        0.30
  J1                   JUNCTION     0.07     0.13    34.13     0  08:15        0.13
  J10                  JUNCTION     0.11     0.22    29.22     0  08:23        0.22
  J11                  JUNCTION     0.11     0.24    31.24     0  08:23        0.24
  J12                  JUNCTION     0.41     1.03    27.03     0  09:36        1.02
  J13                  JUNCTION     0.07     0.13    29.13     0  08:20        0.13
  J14                  JUNCTION     0.12     0.19    20.19     0  10:04        0.19
  J15                  JUNCTION     0.18     0.26    15.26     0  08:23        0.26
  J16                  JUNCTION     0.07     0.14    30.14     0  08:15        0.14
  J17                  JUNCTION     0.06     0.14    20.14     0  10:10        0.14
  J18                  JUNCTION     0.06     0.12    29.12     0  08:17        0.12
  J19                  JUNCTION     0.15     0.17     8.17     0  07:21        0.17
  J2                   JUNCTION     0.06     0.08    25.08     0  09:40        0.08
  J3                   JUNCTION     0.11     0.17    18.17     0  10:10        0.17
  J4                   JUNCTION     0.12     0.21    33.21     0  08:24        0.21
  J5                   JUNCTION     0.06     0.11    32.11     0  08:23        0.11
  J6                   JUNCTION     0.06     0.12    25.12     0  10:11        0.12
  J7                   JUNCTION     0.09     0.18    39.18     0  08:25        0.18
  J8                   JUNCTION     0.11     0.21    36.21     0  08:23        0.21
  J9                   JUNCTION     0.10     0.16    29.16     0  09:15        0.16
  Out_to_WWTP          OUTFALL      0.15     0.17     6.17     0  11:22        0.17
  T1                   STORAGE      3.44     5.00    15.00     0  07:20        5.00
  T2                   STORAGE      1.84     3.80    24.80     0  11:45        3.80
  T3                   STORAGE      2.79     5.00    27.00     0  09:31        5.00
  T4                   STORAGE      2.88     5.00    32.00     0  09:06        5.00
  T5                   STORAGE      2.95     5.00    32.00     0  08:27        5.00
  T6                   STORAGE      3.14     5.00    36.00     0  08:16        5.00
  
  
  *******************
  Node Inflow Summary
  *******************
  
  -------------------------------------------------------------------------------------------------
                                  Maximum  Maximum                  Lateral       Total        Flow
                                  Lateral    Total  Time of Max      Inflow      Inflow     Balance
                                   Inflow   Inflow   Occurrence      Volume      Volume       Error
  Node                 Type           CMS      CMS  days hr:min    10^6 ltr    10^6 ltr     Percent
  -------------------------------------------------------------------------------------------------
  CSO10                JUNCTION     0.107    0.107     0  08:15        1.33        1.33      -0.069
  CSO7                 JUNCTION     0.049    0.049     0  08:20       0.859        0.86      -0.041
  CSO8                 JUNCTION     0.319    0.319     0  08:20        3.37        3.37      -0.087
  CSO9                 JUNCTION     0.081    0.081     0  08:20       0.987       0.988      -0.087
  J1                   JUNCTION     0.154    0.154     0  08:15        2.28        2.28      -0.149
  J10                  JUNCTION     0.231    0.535     0  08:22         2.5         5.9      -0.338
  J11                  JUNCTION     0.000    0.318     0  08:20           0        3.38      -0.258
  J12                  JUNCTION     0.000    0.707     0  08:23           0        9.54       5.903
  J13                  JUNCTION     0.234    0.234     0  08:20        2.89        2.89      -0.387
  J14                  JUNCTION     0.000    0.190     0  10:01           0        4.38       0.160
  J15                  JUNCTION     0.000    0.596     0  08:19           0        13.2       0.511
  J16                  JUNCTION     0.313    0.313     0  08:15        3.96        3.96      -0.150
  J17                  JUNCTION     0.000    0.118     0  10:01           0        1.37       0.529
  J18                  JUNCTION     0.000    0.106     0  08:15           0        1.33      -0.168
  J19                  JUNCTION     0.000    0.271     0  07:20           0        10.1       0.113
  J2                   JUNCTION     0.000    0.039     0  08:28           0        1.35       0.369
  J3                   JUNCTION     0.000    0.308     0  10:09           0        6.56       0.777
  J4                   JUNCTION     0.000    0.049     0  08:20           0        0.86      -0.051
  J5                   JUNCTION     0.063    0.111     0  08:21       0.847        1.71      -0.141
  J6                   JUNCTION     0.000    0.080     0  10:01           0       0.846      -0.009
  J7                   JUNCTION     0.000    0.080     0  08:24           0       0.989      -0.121
  J8                   JUNCTION     0.340    0.416     0  08:20        4.63        5.63      -0.191
  J9                   JUNCTION     0.000    0.175     0  08:16           0        3.57      -0.850
  Out_to_WWTP          OUTFALL      0.000    0.271     0  07:21           0          10       0.000
  T1                   STORAGE      0.000    0.582     0  08:23           0        13.1       5.012
  T2                   STORAGE      0.000    0.234     0  08:20           0         2.9      37.151
  T3                   STORAGE      0.000    0.701     0  08:26           0        9.01      16.492
  T4                   STORAGE      0.000    0.110     0  08:23           0        1.71      24.944
  T5                   STORAGE      0.000    0.153     0  08:16           0        2.28      18.913
  T6                   STORAGE      0.000    0.415     0  08:23           0        5.64      17.563
  
  
  **********************
  Node Surcharge Summary
  **********************
  
  No nodes were surcharged.
  
  
  *********************
  Node Flooding Summary
  *********************
  
  Flooding refers to all water that overflows a node, whether it ponds or not.
  --------------------------------------------------------------------------
                                                             Total   Maximum
                                 Maximum   Time of Max       Flood    Ponded
                        Hours       Rate    Occurrence      Volume     Depth
  Node                 Flooded       CMS   days hr:min    10^6 ltr    Meters
  --------------------------------------------------------------------------
  T1                      3.72     0.312      0  08:23       1.920     0.000
  T3                      1.50     0.394      0  09:39       0.896     0.000
  T4                      0.92     0.032      0  09:06       0.066     0.000
  T5                      2.14     0.085      0  08:27       0.199     0.000
  T6                      1.45     0.354      0  08:30       0.650     0.000
  
  
  **********************
  Storage Volume Summary
  **********************
  
  --------------------------------------------------------------------------------------------------
                         Average     Avg  Evap Exfil       Maximum     Max    Time of Max    Maximum
                          Volume    Pcnt  Pcnt  Pcnt        Volume    Pcnt     Occurrence    Outflow
  Storage Unit           1000 m3    Full  Loss  Loss       1000 m3    Full    days hr:min        CMS
  --------------------------------------------------------------------------------------------------
  T1                       0.481      69     0     0         0.700     100       0  07:20      0.271
  T2                       0.367      37     0     0         0.760      76       0  11:45      0.118
  T3                       1.453      56     0     0         2.600     100       0  09:31      0.195
  T4                       0.288      58     0     0         0.500     100       0  09:06      0.080
  T5                       0.295      59     0     0         0.500     100       0  08:27      0.039
  T6                       0.376      63     0     0         0.600     100       0  08:16      0.175
  
  
  ***********************
  Outfall Loading Summary
  ***********************
  
  -----------------------------------------------------------
                         Flow       Avg       Max       Total
                         Freq      Flow      Flow      Volume
  Outfall Node           Pcnt       CMS       CMS    10^6 ltr
  -----------------------------------------------------------
  Out_to_WWTP           99.42     0.210     0.271      10.042
  -----------------------------------------------------------
  System                99.42     0.210     0.271      10.042
  
  
  ********************
  Link Flow Summary
  ********************
  
  -----------------------------------------------------------------------------
                                 Maximum  Time of Max   Maximum    Max/    Max/
                                  |Flow|   Occurrence   |Veloc|    Full    Full
  Link                 Type          CMS  days hr:min     m/sec    Flow   Depth
  -----------------------------------------------------------------------------
  C1                   CONDUIT     0.039     0  09:09      1.09    0.01    0.12
  C10                  CONDUIT     0.415     0  08:23      1.69    0.04    0.57
  C11                  CONDUIT     0.298     0  10:10      1.90    0.01    0.10
  C12                  CONDUIT     0.175     0  09:15      1.28    0.01    0.30
  C13                  CONDUIT     0.701     0  08:26      1.42    0.04    0.76
  C14                  CONDUIT     0.271     0  07:21      2.08    0.02    0.09
  C15                  CONDUIT     0.318     0  08:20      2.65    1.01    0.70
  C16                  CONDUIT     0.313     0  08:23      1.54    0.03    0.12
  C17                  CONDUIT     0.532     0  08:23      2.48    0.03    0.29
  C18                  CONDUIT     0.234     0  08:20      3.22    0.01    0.53
  C19                  CONDUIT     0.116     0  10:10      1.20    0.04    0.19
  C2                   CONDUIT     0.079     0  10:11      1.63    0.09    0.24
  C20                  CONDUIT     0.311     0  08:15      2.30    0.01    0.10
  C21                  CONDUIT     0.106     0  08:15      1.64    0.61    0.44
  C22                  CONDUIT     0.106     0  08:17      1.22    0.05    0.23
  C23                  CONDUIT     0.582     0  08:23      1.28    0.06    0.59
  C3                   CONDUIT     0.192     0  10:07      2.21    0.07    0.18
  C4                   CONDUIT     0.153     0  08:16      2.44    0.04    0.57
  C5                   CONDUIT     0.049     0  08:20      1.25    0.83    0.76
  C6                   CONDUIT     0.048     0  08:24      1.23    0.76    0.54
  C7                   CONDUIT     0.110     0  08:23      1.47    0.03    0.56
  C8                   CONDUIT     0.080     0  08:24      1.30    1.00    0.77
  C9                   CONDUIT     0.079     0  08:25      1.12    0.27    0.39
  V1                   ORIFICE     0.271     0  07:20                      1.00
  V2                   ORIFICE     0.118     0  10:01                      1.00
  V3                   ORIFICE     0.190     0  10:01                      1.00
  V4                   ORIFICE     0.080     0  10:01                      1.00
  V5                   ORIFICE     0.039     0  08:28                      1.00
  V6                   ORIFICE     0.175     0  08:16                      1.00
  
  
  ***************************
  Flow Classification Summary
  ***************************
  
  -------------------------------------------------------------------------------------
                      Adjusted    ---------- Fraction of Time in Flow Class ---------- 
                       /Actual         Up    Down  Sub   Sup   Up    Down  Norm  Inlet 
  Conduit               Length    Dry  Dry   Dry   Crit  Crit  Crit  Crit  Ltd   Ctrl  
  -------------------------------------------------------------------------------------
  C1                      1.00   0.00  0.00  0.00  0.41  0.59  0.00  0.00  0.97  0.00
  C10                     1.00   0.00  0.00  0.00  0.98  0.02  0.00  0.00  0.99  0.00
  C11                     1.00   0.00  0.00  0.00  0.23  0.77  0.00  0.00  1.00  0.00
  C12                     1.00   0.00  0.00  0.00  0.87  0.13  0.00  0.00  0.99  0.00
  C13                     1.00   0.00  0.00  0.00  0.92  0.08  0.00  0.00  0.56  0.00
  C14                     1.00   0.00  0.00  0.00  0.01  0.99  0.00  0.00  0.25  0.00
  C15                     1.00   0.00  0.00  0.00  0.00  1.00  0.00  0.00  0.00  0.00
  C16                     1.00   0.00  0.00  0.00  0.28  0.72  0.00  0.00  0.20  0.00
  C17                     1.00   0.00  0.00  0.00  0.38  0.62  0.00  0.00  0.98  0.00
  C18                     1.00   0.00  0.00  0.00  0.94  0.06  0.00  0.00  0.98  0.00
  C19                     1.00   0.00  0.00  0.00  0.97  0.03  0.00  0.00  1.00  0.00
  C2                      1.00   0.00  0.00  0.00  0.76  0.24  0.00  0.00  0.98  0.00
  C20                     1.00   0.00  0.00  0.00  0.49  0.51  0.00  0.00  0.99  0.00
  C21                     1.00   0.00  0.00  0.00  0.00  1.00  0.00  0.00  0.00  0.00
  C22                     1.00   0.00  0.00  0.00  0.91  0.09  0.00  0.00  1.00  0.00
  C23                     1.00   0.00  0.00  0.00  0.95  0.05  0.00  0.00  0.97  0.00
  C3                      1.00   0.00  0.00  0.00  0.03  0.97  0.00  0.00  0.23  0.00
  C4                      1.00   0.00  0.00  0.00  0.98  0.02  0.00  0.00  0.99  0.00
  C5                      1.00   0.00  0.00  0.00  0.93  0.07  0.00  0.00  0.99  0.00
  C6                      1.00   0.00  0.00  0.00  0.00  0.99  0.00  0.00  0.00  0.00
  C7                      1.00   0.00  0.00  0.00  0.97  0.03  0.00  0.00  0.98  0.00
  C8                      1.00   0.00  0.00  0.00  0.13  0.87  0.00  0.00  0.00  0.00
  C9                      1.00   0.00  0.00  0.00  1.00  0.00  0.00  0.00  1.00  0.00
  
  
  *************************
  Conduit Surcharge Summary
  *************************
  
  ----------------------------------------------------------------------------
                                                           Hours        Hours 
                         --------- Hours Full --------   Above Full   Capacity
  Conduit                Both Ends  Upstream  Dnstream   Normal Flow   Limited
  ----------------------------------------------------------------------------
  C10                         0.01      0.01      9.94      0.01         0.01
  C13                         0.01      0.01      7.78      0.01         0.01
  C15                         0.01      0.01      0.01      0.04         0.01
  C18                         0.01      0.01      5.50      0.01         0.01
  C23                         0.01      0.01     10.49      0.01         0.01
  C4                          0.01      0.01     10.71      0.01         0.01
  C7                          0.01      0.01     10.36      0.01         0.01
  C8                          0.01      0.01      0.01      0.07         0.01
  

  Analysis begun on:  Sun Jul 17 21:23:19 2022
  Analysis ended on:  Sun Jul 17 21:23:21 2022
  Total elapsed time: 00:00:02