
  EPA STORM WATER MANAGEMENT MODEL - VERSION 5.1 (Build 5.3.0.dev0)
  --------------------------------------------------------------

  
  *********************************************************
  NOTE: The summary statistics displayed in this report are
  based on results found at every computational time step,  
  not just on results from each reporting time step.
  *********************************************************
  
  ****************
  Analysis Options
  ****************
  Flow Units ............... CMS
  Process Models:
    Rainfall/Runoff ........ YES
    RDII ................... NO
    Snowmelt ............... NO
    Groundwater ............ NO
    Flow Routing ........... YES
    Ponding Allowed ........ NO
    Water Quality .......... NO
  Infiltration Method ...... HORTON
  Flow Routing Method ...... DYNWAVE
  Surcharge Method ......... EXTRAN
  Starting Date ............ 08/22/2007 21:45:00
  Ending Date .............. 08/23/2007 02:35:00
  Antecedent Dry Days ...... 0.0
  Report Time Step ......... 00:05:00
  Wet Time Step ............ 00:05:00
  Dry Time Step ............ 01:00:00
  Routing Time Step ........ 30.00 sec
  Variable Time Step ....... YES
  Maximum Trials ........... 8
  Number of Threads ........ 1
  Head Tolerance ........... 0.001500 m
  
  
  **************************        Volume         Depth
  Runoff Quantity Continuity     hectare-m            mm
  **************************     ---------       -------
  Total Precipitation ......         1.597         8.864
  Evaporation Loss .........         0.000         0.000
  Infiltration Loss ........         0.000         0.000
  Surface Runoff ...........         1.562         8.670
  Final Storage ............         0.041         0.228
  Continuity Error (%) .....        -0.387
  
  
  **************************        Volume        Volume
  Flow Routing Continuity        hectare-m      10^6 ltr
  **************************     ---------     ---------
  Dry Weather Inflow .......         0.036         0.355
  Wet Weather Inflow .......         1.563        15.627
  Groundwater Inflow .......         0.000         0.000
  RDII Inflow ..............         0.000         0.000
  External Inflow ..........         0.000         0.000
  External Outflow .........         0.374         3.742
  Flooding Loss ............         0.345         3.451
  Evaporation Loss .........         0.000         0.000
  Exfiltration Loss ........         0.000         0.000
  Initial Stored Volume ....         0.000         0.000
  Final Stored Volume ......         0.666         6.664
  Continuity Error (%) .....        13.299
  
  
  *************************
  Highest Continuity Errors
  *************************
  Node T2 (38.52%)
  Node T5 (29.04%)
  Node T4 (27.52%)
  Node T3 (24.30%)
  Node T6 (15.81%)
  
  
  ***************************
  Time-Step Critical Elements
  ***************************
  Link C15 (64.65%)
  
  
  ********************************
  Highest Flow Instability Indexes
  ********************************
  Link C13 (7)
  Link C18 (2)
  Link C8 (2)
  Link C15 (2)
  Link C20 (2)
  
  
  *************************
  Routing Time Step Summary
  *************************
  Minimum Time Step           :     1.28 sec
  Average Time Step           :    22.32 sec
  Maximum Time Step           :    30.00 sec
  Percent in Steady State     :     1.22
  Average Iterations per Step :     2.69
  Percent Not Converging      :     0.78
  
  
  ***************************
  Subcatchment Runoff Summary
  ***************************
  
  ------------------------------------------------------------------------------------------------------------------------------
                            Total      Total      Total      Total     Imperv       Perv      Total       Total     Peak  Runoff
                           Precip      Runon       Evap      Infil     Runoff     Runoff     Runoff      Runoff   Runoff   Coeff
  Subcatchment                 mm         mm         mm         mm         mm         mm         mm    10^6 ltr      CMS
  ------------------------------------------------------------------------------------------------------------------------------
  SC01                       6.95       0.00       0.00       0.00       6.85       0.00       6.85        2.26     0.56   0.985
  SC010                      6.95       0.00       0.00       0.00       6.79       0.00       6.79        0.80     0.16   0.976
  SC02                       7.74       0.00       0.00       0.00       7.64       0.00       7.64        1.74     0.42   0.987
  SC03                       8.89       0.00       0.00       0.00       8.83       0.00       8.83        1.59     0.57   0.993
  SC04                       7.74       0.00       0.00       0.00       7.42       0.00       7.42        0.51     0.09   0.959
  SC05                       6.95       0.00       0.00       0.00       6.83       0.00       6.83        1.07     0.25   0.983
  SC06                      12.74       0.00       0.00       0.00      12.30       0.00      12.30        4.00     1.09   0.965
  SC07                       7.74       0.00       0.00       0.00       7.43       0.00       7.43        0.35     0.06   0.959
  SC08                       8.89       0.00       0.00       0.00       8.72       0.00       8.72        2.44     0.74   0.981
  SC09                      12.74       0.00       0.00       0.00      12.52       0.00      12.52        0.86     0.31   0.983
  
  
  ******************
  Node Depth Summary
  ******************
  
  ---------------------------------------------------------------------------------
                                 Average  Maximum  Maximum  Time of Max    Reported
                                   Depth    Depth      HGL   Occurrence   Max Depth
  Node                 Type       Meters   Meters   Meters  days hr:min      Meters
  ---------------------------------------------------------------------------------
  CSO10                JUNCTION     0.18     0.36    30.36     0  00:40        0.35
  CSO7                 JUNCTION     0.12     0.23    34.23     0  00:50        0.22
  CSO8                 JUNCTION     0.46     2.00    34.00     0  00:36        2.00
  CSO9                 JUNCTION     0.52     2.00    42.00     0  00:41        2.00
  J1                   JUNCTION     0.09     0.17    34.17     0  00:40        0.16
  J10                  JUNCTION     0.15     0.31    29.31     0  00:45        0.31
  J11                  JUNCTION     0.16     0.30    31.30     0  00:54        0.30
  J12                  JUNCTION     0.22     0.34    26.34     0  00:46        0.33
  J13                  JUNCTION     0.09     0.17    29.17     0  00:30        0.17
  J14                  JUNCTION     0.12     0.15    20.15     0  03:30        0.15
  J15                  JUNCTION     0.19     0.28    15.28     0  00:45        0.28
  J16                  JUNCTION     0.09     0.18    30.18     0  00:40        0.18
  J17                  JUNCTION     0.06     0.07    20.07     0  03:10        0.07
  J18                  JUNCTION     0.08     0.14    29.14     0  00:42        0.14
  J19                  JUNCTION     0.14     0.17     8.17     0  01:42        0.17
  J2                   JUNCTION     0.06     0.07    25.07     0  02:52        0.07
  J3                   JUNCTION     0.11     0.13    18.13     0  03:13        0.13
  J4                   JUNCTION     0.14     0.26    33.26     0  00:53        0.25
  J5                   JUNCTION     0.08     0.13    32.13     0  00:51        0.13
  J6                   JUNCTION     0.06     0.07    25.07     0  03:13        0.07
  J7                   JUNCTION     0.12     0.23    39.23     0  01:14        0.23
  J8                   JUNCTION     0.17     0.36    36.36     0  00:51        0.35
  J9                   JUNCTION     0.09     0.11    29.11     0  02:35        0.11
  Out_to_WWTP          OUTFALL      0.14     0.17     6.17     0  01:41        0.17
  T1                   STORAGE      3.50     5.00    15.00     0  01:41        5.00
  T2                   STORAGE      2.54     3.77    24.77     0  03:08        3.77
  T3                   STORAGE      2.85     4.26    26.26     0  03:20        4.26
  T4                   STORAGE      2.34     3.71    30.71     0  03:11        3.71
  T5                   STORAGE      2.58     4.01    31.01     0  02:50        4.01
  T6                   STORAGE      3.83     5.00    36.00     0  01:05        5.00
  
  
  *******************
  Node Inflow Summary
  *******************
  
  -------------------------------------------------------------------------------------------------
                                  Maximum  Maximum                  Lateral       Total        Flow
                                  Lateral    Total  Time of Max      Inflow      Inflow     Balance
                                   Inflow   Inflow   Occurrence      Volume      Volume       Error
  Node                 Type           CMS      CMS  days hr:min    10^6 ltr    10^6 ltr     Percent
  -------------------------------------------------------------------------------------------------
  CSO10                JUNCTION     0.160    0.160     0  00:40       0.811       0.812       0.058
  CSO7                 JUNCTION     0.063    0.063     0  00:50       0.381       0.381       0.062
  CSO8                 JUNCTION     0.736    0.736     0  00:45        2.44        2.44       0.002
  CSO9                 JUNCTION     0.314    0.314     0  00:50       0.884       0.884       0.031
  J1                   JUNCTION     0.252    0.252     0  00:40        1.12        1.12      -0.293
  J10                  JUNCTION     0.571    1.057     0  00:45        1.63        3.92      -0.067
  J11                  JUNCTION     0.000    0.486     0  00:54           0         2.3       0.188
  J12                  JUNCTION     0.000    1.066     0  00:45           0           5       1.206
  J13                  JUNCTION     0.426    0.426     0  00:30        1.78        1.78      -0.652
  J14                  JUNCTION     0.000    0.114     0  03:20           0        1.57       0.436
  J15                  JUNCTION     0.000    0.752     0  00:41           0        5.85       1.253
  J16                  JUNCTION     0.561    0.561     0  00:40        2.31        2.32      -0.144
  J17                  JUNCTION     0.000    0.029     0  03:08           0       0.402       1.439
  J18                  JUNCTION     0.000    0.158     0  00:41           0       0.811      -0.066
  J19                  JUNCTION     0.000    0.271     0  01:41           0        3.75       0.319
  J2                   JUNCTION     0.000    0.035     0  02:50           0       0.476       1.022
  J3                   JUNCTION     0.000    0.173     0  03:03           0        2.36       1.540
  J4                   JUNCTION     0.000    0.062     0  00:50           0       0.381       0.407
  J5                   JUNCTION     0.089    0.145     0  00:50       0.525       0.904      -0.129
  J6                   JUNCTION     0.000    0.024     0  03:11           0       0.325       1.115
  J7                   JUNCTION     0.000    0.127     0  01:14           0       0.709       0.190
  J8                   JUNCTION     1.094    1.219     0  00:50         4.1        4.81      -0.073
  J9                   JUNCTION     0.000    0.075     0  01:06           0         1.1       1.847
  Out_to_WWTP          OUTFALL      0.000    0.271     0  01:42           0        3.74       0.000
  T1                   STORAGE      0.000    0.688     0  00:45           0        5.77      14.008
  T2                   STORAGE      0.000    0.418     0  00:30           0        1.79      62.648
  T3                   STORAGE      0.000    1.049     0  00:46           0        4.94      32.105
  T4                   STORAGE      0.000    0.144     0  00:51           0       0.905      37.977
  T5                   STORAGE      0.000    0.249     0  00:40           0        1.12      40.926
  T6                   STORAGE      0.000    1.203     0  00:51           0        4.81      18.783
  
  
  **********************
  Node Surcharge Summary
  **********************
  
  Surcharging occurs when water rises above the top of the highest conduit.
  ---------------------------------------------------------------------
                                               Max. Height   Min. Depth
                                   Hours       Above Crown    Below Rim
  Node                 Type      Surcharged         Meters       Meters
  ---------------------------------------------------------------------
  CSO8                 JUNCTION        0.55          1.547        0.000
  CSO9                 JUNCTION        0.81          1.682        0.000
  
  
  *********************
  Node Flooding Summary
  *********************
  
  Flooding refers to all water that overflows a node, whether it ponds or not.
  --------------------------------------------------------------------------
                                                             Total   Maximum
                                 Maximum   Time of Max       Flood    Ponded
                        Hours       Rate    Occurrence      Volume     Depth
  Node                 Flooded       CMS   days hr:min    10^6 ltr    Meters
  --------------------------------------------------------------------------
  CSO8                    0.31     0.248      0  00:45       0.146     0.000
  CSO9                    0.56     0.186      0  00:50       0.175     0.000
  T1                      1.42     0.357      0  01:43       0.717     0.000
  T6                      2.47     0.903      0  01:05       2.410     0.000
  
  
  **********************
  Storage Volume Summary
  **********************
  
  --------------------------------------------------------------------------------------------------
                         Average     Avg  Evap Exfil       Maximum     Max    Time of Max    Maximum
                          Volume    Pcnt  Pcnt  Pcnt        Volume    Pcnt     Occurrence    Outflow
  Storage Unit           1000 m3    Full  Loss  Loss       1000 m3    Full    days hr:min        CMS
  --------------------------------------------------------------------------------------------------
  T1                       0.490      70     0     0         0.700     100       0  01:41      0.271
  T2                       0.508      51     0     0         0.754      75       0  03:08      0.029
  T3                       1.480      57     0     0         2.214      85       0  03:20      0.114
  T4                       0.234      47     0     0         0.371      74       0  03:11      0.024
  T5                       0.258      52     0     0         0.401      80       0  02:50      0.035
  T6                       0.459      77     0     0         0.600     100       0  01:05      0.075
  
  
  ***********************
  Outfall Loading Summary
  ***********************
  
  -----------------------------------------------------------
                         Flow       Avg       Max       Total
                         Freq      Flow      Flow      Volume
  Outfall Node           Pcnt       CMS       CMS    10^6 ltr
  -----------------------------------------------------------
  Out_to_WWTP           98.33     0.208     0.271       3.742
  -----------------------------------------------------------
  System                98.33     0.208     0.271       3.742
  
  
  ********************
  Link Flow Summary
  ********************
  
  -----------------------------------------------------------------------------
                                 Maximum  Time of Max   Maximum    Max/    Max/
                                  |Flow|   Occurrence   |Veloc|    Full    Full
  Link                 Type          CMS  days hr:min     m/sec    Flow   Depth
  -----------------------------------------------------------------------------
  C1                   CONDUIT     0.035     0  02:52      0.84    0.01    0.10
  C10                  CONDUIT     1.203     0  00:51      1.68    0.12    0.62
  C11                  CONDUIT     0.173     0  03:13      1.68    0.01    0.10
  C12                  CONDUIT     0.075     0  02:24      0.79    0.01    0.10
  C13                  CONDUIT     1.049     0  00:46      2.75    0.06    0.57
  C14                  CONDUIT     0.271     0  01:42      2.08    0.02    0.09
  C15                  CONDUIT     0.486     0  00:54      3.45    1.55    0.83
  C16                  CONDUIT     0.486     0  00:49      1.78    0.05    0.15
  C17                  CONDUIT     1.048     0  00:45      3.22    0.05    0.16
  C18                  CONDUIT     0.418     0  00:30      3.03    0.02    0.54
  C19                  CONDUIT     0.029     0  03:10      0.57    0.01    0.17
  C2                   CONDUIT     0.024     0  03:13      0.78    0.03    0.17
  C20                  CONDUIT     0.553     0  00:40      3.55    0.02    0.11
  C21                  CONDUIT     0.158     0  00:41      1.79    0.91    0.57
  C22                  CONDUIT     0.154     0  00:42      1.50    0.07    0.26
  C23                  CONDUIT     0.688     0  00:45      2.43    0.08    0.59
  C3                   CONDUIT     0.114     0  03:21      1.75    0.04    0.14
  C4                   CONDUIT     0.249     0  00:40      5.48    0.06    0.57
  C5                   CONDUIT     0.062     0  00:50      1.38    1.06    0.93
  C6                   CONDUIT     0.058     0  00:53      1.26    0.93    0.64
  C7                   CONDUIT     0.144     0  00:51      1.82    0.04    0.56
  C8                   CONDUIT     0.127     0  01:14      2.12    1.60    0.86
  C9                   CONDUIT     0.127     0  01:15      1.25    0.43    0.59
  V1                   ORIFICE     0.271     0  01:41                      1.00
  V2                   ORIFICE     0.029     0  03:08                      0.24
  V3                   ORIFICE     0.114     0  03:20                      0.65
  V4                   ORIFICE     0.024     0  03:11                      0.35
  V5                   ORIFICE     0.035     0  02:50                      1.00
  V6                   ORIFICE     0.075     0  01:06                      0.43
  
  
  ***************************
  Flow Classification Summary
  ***************************
  
  -------------------------------------------------------------------------------------
                      Adjusted    ---------- Fraction of Time in Flow Class ---------- 
                       /Actual         Up    Down  Sub   Sup   Up    Down  Norm  Inlet 
  Conduit               Length    Dry  Dry   Dry   Crit  Crit  Crit  Crit  Ltd   Ctrl  
  -------------------------------------------------------------------------------------
  C1                      1.00   0.00  0.00  0.00  0.61  0.39  0.00  0.00  0.91  0.00
  C10                     1.00   0.00  0.00  0.00  0.83  0.17  0.00  0.00  0.94  0.00
  C11                     1.00   0.00  0.00  0.00  0.53  0.47  0.00  0.00  1.00  0.00
  C12                     1.00   0.00  0.00  0.00  1.00  0.00  0.00  0.00  1.00  0.00
  C13                     1.00   0.00  0.00  0.00  0.85  0.15  0.00  0.00  0.42  0.00
  C14                     1.00   0.01  0.00  0.00  0.02  0.97  0.00  0.00  0.32  0.00
  C15                     1.00   0.03  0.00  0.00  0.00  0.97  0.00  0.00  0.00  0.00
  C16                     1.00   0.00  0.03  0.00  0.09  0.88  0.00  0.00  0.09  0.00
  C17                     1.00   0.00  0.00  0.00  0.32  0.68  0.00  0.00  0.89  0.00
  C18                     1.00   0.00  0.00  0.00  0.90  0.10  0.00  0.00  0.93  0.00
  C19                     1.00   0.00  0.00  0.00  1.00  0.00  0.00  0.00  1.00  0.00
  C2                      1.00   0.00  0.00  0.00  0.87  0.12  0.00  0.00  0.96  0.00
  C20                     1.00   0.00  0.00  0.00  0.33  0.67  0.00  0.00  0.94  0.00
  C21                     1.00   0.00  0.00  0.00  0.01  0.99  0.00  0.00  0.00  0.00
  C22                     1.00   0.00  0.00  0.00  0.57  0.43  0.00  0.00  1.00  0.00
  C23                     1.00   0.00  0.00  0.00  0.85  0.15  0.00  0.00  0.87  0.00
  C3                      1.00   0.00  0.01  0.00  0.06  0.93  0.00  0.00  0.08  0.00
  C4                      1.00   0.00  0.00  0.00  0.88  0.12  0.00  0.00  0.96  0.00
  C5                      1.00   0.00  0.00  0.00  0.91  0.09  0.00  0.00  0.93  0.00
  C6                      1.00   0.00  0.00  0.00  0.09  0.91  0.00  0.00  0.00  0.00
  C7                      1.00   0.00  0.00  0.00  0.88  0.12  0.00  0.00  0.92  0.00
  C8                      1.00   0.00  0.00  0.00  0.42  0.58  0.00  0.00  0.00  0.00
  C9                      1.00   0.00  0.00  0.00  1.00  0.00  0.00  0.00  1.00  0.00
  
  
  *************************
  Conduit Surcharge Summary
  *************************
  
  ----------------------------------------------------------------------------
                                                           Hours        Hours 
                         --------- Hours Full --------   Above Full   Capacity
  Conduit                Both Ends  Upstream  Dnstream   Normal Flow   Limited
  ----------------------------------------------------------------------------
  C10                         0.01      0.01      4.00      0.01         0.01
  C13                         0.01      0.01      3.75      0.01         0.01
  C15                         0.01      0.55      0.01      0.58         0.01
  C18                         0.01      0.01      3.59      0.01         0.01
  C23                         0.01      0.01      3.97      0.01         0.01
  C4                          0.01      0.01      4.01      0.01         0.01
  C5                          0.01      0.01      0.01      0.09         0.01
  C7                          0.01      0.01      3.89      0.01         0.01
  C8                          0.01      0.81      0.01      0.82         0.01
  

  Analysis begun on:  Sun Jul 17 20:10:36 2022
  Analysis ended on:  Sun Jul 17 20:10:36 2022
  Total elapsed time: < 1 sec