
  EPA STORM WATER MANAGEMENT MODEL - VERSION 5.1 (Build 5.3.0.dev0)
  --------------------------------------------------------------

  
  *********************************************************
  NOTE: The summary statistics displayed in this report are
  based on results found at every computational time step,  
  not just on results from each reporting time step.
  *********************************************************
  
  ****************
  Analysis Options
  ****************
  Flow Units ............... CMS
  Process Models:
    Rainfall/Runoff ........ YES
    RDII ................... NO
    Snowmelt ............... NO
    Groundwater ............ NO
    Flow Routing ........... YES
    Ponding Allowed ........ NO
    Water Quality .......... NO
  Infiltration Method ...... HORTON
  Flow Routing Method ...... DYNWAVE
  Surcharge Method ......... EXTRAN
  Starting Date ............ 10/05/2008 20:00:00
  Ending Date .............. 10/06/2008 03:35:00
  Antecedent Dry Days ...... 0.0
  Report Time Step ......... 00:05:00
  Wet Time Step ............ 00:05:00
  Dry Time Step ............ 01:00:00
  Routing Time Step ........ 30.00 sec
  Variable Time Step ....... YES
  Maximum Trials ........... 8
  Number of Threads ........ 1
  Head Tolerance ........... 0.001500 m
  
  
  **************************        Volume         Depth
  Runoff Quantity Continuity     hectare-m            mm
  **************************     ---------       -------
  Total Precipitation ......         1.997        11.083
  Evaporation Loss .........         0.000         0.000
  Infiltration Loss ........         0.000         0.000
  Surface Runoff ...........         2.001        11.103
  Final Storage ............         0.025         0.141
  Continuity Error (%) .....        -1.453
  
  
  **************************        Volume        Volume
  Flow Routing Continuity        hectare-m      10^6 ltr
  **************************     ---------     ---------
  Dry Weather Inflow .......         0.089         0.887
  Wet Weather Inflow .......         2.004        20.036
  Groundwater Inflow .......         0.000         0.000
  RDII Inflow ..............         0.000         0.000
  External Inflow ..........         0.000         0.000
  External Outflow .........         0.652         6.519
  Flooding Loss ............         0.882         8.822
  Evaporation Loss .........         0.000         0.000
  Exfiltration Loss ........         0.000         0.000
  Initial Stored Volume ....         0.000         0.000
  Final Stored Volume ......         0.480         4.804
  Continuity Error (%) .....         3.718
  
  
  *************************
  Highest Continuity Errors
  *************************
  Node T3 (18.07%)
  Node T6 (16.20%)
  Node T2 (13.33%)
  Node T5 (8.56%)
  Node T4 (6.53%)
  
  
  ***************************
  Time-Step Critical Elements
  ***************************
  Link C15 (13.03%)
  Link C21 (9.48%)
  Link C5 (1.58%)
  
  
  ********************************
  Highest Flow Instability Indexes
  ********************************
  Link C11 (3)
  Link C23 (3)
  Link C19 (3)
  Link C12 (3)
  Link C2 (2)
  
  
  *************************
  Routing Time Step Summary
  *************************
  Minimum Time Step           :     0.51 sec
  Average Time Step           :    26.94 sec
  Maximum Time Step           :    30.00 sec
  Percent in Steady State     :     0.22
  Average Iterations per Step :     2.68
  Percent Not Converging      :     3.76
  
  
  ***************************
  Subcatchment Runoff Summary
  ***************************
  
  ------------------------------------------------------------------------------------------------------------------------------
                            Total      Total      Total      Total     Imperv       Perv      Total       Total     Peak  Runoff
                           Precip      Runon       Evap      Infil     Runoff     Runoff     Runoff      Runoff   Runoff   Coeff
  Subcatchment                 mm         mm         mm         mm         mm         mm         mm    10^6 ltr      CMS
  ------------------------------------------------------------------------------------------------------------------------------
  SC01                      14.26       0.00       0.00       0.00      14.40       0.00      14.40        4.75     4.34   1.010
  SC010                     14.26       0.00       0.00       0.00      14.33       0.00      14.33        1.68     1.37   1.005
  SC02                      17.87       0.00       0.00       0.00      18.11       0.00      18.11        4.12     3.61   1.013
  SC03                       4.86       0.00       0.00       0.00       4.88       0.00       4.88        0.88     0.97   1.005
  SC04                      17.87       0.00       0.00       0.00      17.87       0.00      17.87        1.23     0.80   1.000
  SC05                      14.26       0.00       0.00       0.00      14.38       0.00      14.38        2.24     1.99   1.009
  SC06                       7.56       0.00       0.00       0.00       7.34       0.00       7.34        2.39     1.14   0.971
  SC07                      17.87       0.00       0.00       0.00      17.87       0.00      17.87        0.85     0.55   1.000
  SC08                       4.86       0.00       0.00       0.00       4.79       0.00       4.79        1.34     0.93   0.986
  SC09                       7.56       0.00       0.00       0.00       7.46       0.00       7.46        0.51     0.34   0.987
  
  
  ******************
  Node Depth Summary
  ******************
  
  ---------------------------------------------------------------------------------
                                 Average  Maximum  Maximum  Time of Max    Reported
                                   Depth    Depth      HGL   Occurrence   Max Depth
  Node                 Type       Meters   Meters   Meters  days hr:min      Meters
  ---------------------------------------------------------------------------------
  CSO10                JUNCTION     0.19     1.00    31.00     0  00:41        1.00
  CSO7                 JUNCTION     0.27     1.20    35.20     0  00:28        1.20
  CSO8                 JUNCTION     0.22     2.00    34.00     0  00:21        2.00
  CSO9                 JUNCTION     0.26     2.00    42.00     0  00:27        2.00
  J1                   JUNCTION     0.08     0.59    34.59     0  00:51        0.54
  J10                  JUNCTION     0.08     0.35    29.35     0  00:26        0.33
  J11                  JUNCTION     0.08     0.29    31.29     0  00:35        0.29
  J12                  JUNCTION     0.12     0.38    26.38     0  00:28        0.37
  J13                  JUNCTION     0.08     0.49    29.49     0  00:40        0.47
  J14                  JUNCTION     0.10     0.16    20.16     0  04:33        0.16
  J15                  JUNCTION     0.21     0.88    15.88     0  00:53        0.86
  J16                  JUNCTION     0.08     0.50    30.50     0  00:50        0.49
  J17                  JUNCTION     0.08     0.15    20.15     0  00:55        0.15
  J18                  JUNCTION     0.06     0.16    29.16     0  01:09        0.16
  J19                  JUNCTION     0.16     0.17     8.17     0  00:50        0.17
  J2                   JUNCTION     0.07     0.08    25.08     0  01:36        0.08
  J3                   JUNCTION     0.11     0.15    18.15     0  04:52        0.15
  J4                   JUNCTION     0.18     0.95    33.95     0  00:28        0.75
  J5                   JUNCTION     0.07     0.31    32.31     0  00:45        0.31
  J6                   JUNCTION     0.08     0.12    25.12     0  02:06        0.12
  J7                   JUNCTION     0.07     0.23    39.23     0  00:48        0.23
  J8                   JUNCTION     0.10     0.36    36.36     0  00:36        0.35
  J9                   JUNCTION     0.09     0.17    29.17     0  03:37        0.17
  Out_to_WWTP          OUTFALL      0.16     0.17     6.17     0  01:51        0.17
  T1                   STORAGE      3.99     5.00    15.00     0  00:49        5.00
  T2                   STORAGE      3.88     5.00    26.00     0  00:44        5.00
  T3                   STORAGE      1.94     2.48    24.48     0  05:25        2.48
  T4                   STORAGE      3.24     5.00    32.00     0  00:54        5.00
  T5                   STORAGE      3.45     5.00    32.00     0  00:50        5.00
  T6                   STORAGE      3.54     5.00    36.00     0  00:55        5.00
  
  
  *******************
  Node Inflow Summary
  *******************
  
  -------------------------------------------------------------------------------------------------
                                  Maximum  Maximum                  Lateral       Total        Flow
                                  Lateral    Total  Time of Max      Inflow      Inflow     Balance
                                   Inflow   Inflow   Occurrence      Volume      Volume       Error
  Node                 Type           CMS      CMS  days hr:min    10^6 ltr    10^6 ltr     Percent
  -------------------------------------------------------------------------------------------------
  CSO10                JUNCTION     1.375    1.375     0  00:50        1.72        1.72      -0.051
  CSO7                 JUNCTION     0.555    0.555     0  00:45       0.922       0.922      -0.075
  CSO8                 JUNCTION     0.928    0.928     0  00:25        1.34        1.34      -0.035
  CSO9                 JUNCTION     0.346    0.346     0  00:35       0.564       0.564      -0.021
  J1                   JUNCTION     2.004    2.004     0  00:50        2.38        2.38      -0.237
  J10                  JUNCTION     0.981    1.418     0  00:25       0.969        2.13      -0.120
  J11                  JUNCTION     0.000    0.486     0  00:34           0        1.17       0.391
  J12                  JUNCTION     0.000    1.388     0  00:26           0        3.61      -0.298
  J13                  JUNCTION     3.626    3.626     0  00:40        4.25        4.25      -0.261
  J14                  JUNCTION     0.000    0.133     0  05:25           0        1.89       0.219
  J15                  JUNCTION     0.000    4.717     0  00:50           0        10.9       0.596
  J16                  JUNCTION     4.352    4.352     0  00:50        4.89        4.89      -0.299
  J17                  JUNCTION     0.000    0.140     0  00:45           0        1.39       0.416
  J18                  JUNCTION     0.000    0.202     0  01:09           0       0.892      -0.109
  J19                  JUNCTION     0.000    0.271     0  00:49           0        6.53       0.173
  J2                   JUNCTION     0.000    0.039     0  00:51           0       0.877       0.448
  J3                   JUNCTION     0.000    0.234     0  04:44           0        3.75       0.774
  J4                   JUNCTION     0.000    0.076     0  00:39           0       0.463       0.269
  J5                   JUNCTION     0.799    0.872     0  00:45        1.27        1.73      -0.099
  J6                   JUNCTION     0.000    0.080     0  02:00           0           1       0.570
  J7                   JUNCTION     0.000    0.127     0  00:48           0       0.435       0.346
  J8                   JUNCTION     1.163    1.286     0  00:35        2.62        3.06      -0.196
  J9                   JUNCTION     0.000    0.175     0  01:35           0        1.48       0.151
  Out_to_WWTP          OUTFALL      0.000    0.271     0  00:51           0        6.52       0.000
  T1                   STORAGE      0.000    3.705     0  00:53           0        10.8       5.444
  T2                   STORAGE      0.000    3.596     0  00:40           0        4.26      15.379
  T3                   STORAGE      0.000    1.348     0  00:28           0        3.63      22.060
  T4                   STORAGE      0.000    0.867     0  00:45           0        1.73       6.990
  T5                   STORAGE      0.000    1.915     0  00:51           0        2.39       9.366
  T6                   STORAGE      0.000    1.249     0  00:36           0        3.06      19.338
  
  
  **********************
  Node Surcharge Summary
  **********************
  
  Surcharging occurs when water rises above the top of the highest conduit.
  ---------------------------------------------------------------------
                                               Max. Height   Min. Depth
                                   Hours       Above Crown    Below Rim
  Node                 Type      Surcharged         Meters       Meters
  ---------------------------------------------------------------------
  CSO10                JUNCTION        0.53          0.560        0.000
  CSO7                 JUNCTION        0.93          0.945        0.000
  CSO8                 JUNCTION        0.33          1.547        0.000
  CSO9                 JUNCTION        0.50          1.682        0.000
  J4                   JUNCTION        0.87          0.650        1.050
  
  
  *********************
  Node Flooding Summary
  *********************
  
  Flooding refers to all water that overflows a node, whether it ponds or not.
  --------------------------------------------------------------------------
                                                             Total   Maximum
                                 Maximum   Time of Max       Flood    Ponded
                        Hours       Rate    Occurrence      Volume     Depth
  Node                 Flooded       CMS   days hr:min    10^6 ltr    Meters
  --------------------------------------------------------------------------
  CSO10                   0.47     1.158      0  00:50       0.827     0.000
  CSO7                    0.75     0.482      0  00:45       0.458     0.000
  CSO8                    0.21     0.445      0  00:25       0.172     0.000
  CSO9                    0.36     0.217      0  00:35       0.129     0.000
  T1                      0.88     3.433      0  00:54       3.249     0.000
  T2                      1.17     3.270      0  00:44       1.714     0.000
  T4                      1.09     0.421      0  00:54       0.456     0.000
  T5                      0.91     1.874      0  00:51       1.071     0.000
  T6                      1.10     0.503      0  00:55       0.740     0.000
  
  
  **********************
  Storage Volume Summary
  **********************
  
  --------------------------------------------------------------------------------------------------
                         Average     Avg  Evap Exfil       Maximum     Max    Time of Max    Maximum
                          Volume    Pcnt  Pcnt  Pcnt        Volume    Pcnt     Occurrence    Outflow
  Storage Unit           1000 m3    Full  Loss  Loss       1000 m3    Full    days hr:min        CMS
  --------------------------------------------------------------------------------------------------
  T1                       0.559      80     0     0         0.700     100       0  00:49      0.271
  T2                       0.776      78     0     0         1.000     100       0  00:44      0.140
  T3                       1.007      39     0     0         1.291      50       0  05:25      0.133
  T4                       0.324      65     0     0         0.500     100       0  00:54      0.080
  T5                       0.345      69     0     0         0.500     100       0  00:50      0.039
  T6                       0.424      71     0     0         0.600     100       0  00:55      0.175
  
  
  ***********************
  Outfall Loading Summary
  ***********************
  
  -----------------------------------------------------------
                         Flow       Avg       Max       Total
                         Freq      Flow      Flow      Volume
  Outfall Node           Pcnt       CMS       CMS    10^6 ltr
  -----------------------------------------------------------
  Out_to_WWTP           98.91     0.235     0.271       6.519
  -----------------------------------------------------------
  System                98.91     0.235     0.271       6.519
  
  
  ********************
  Link Flow Summary
  ********************
  
  -----------------------------------------------------------------------------
                                 Maximum  Time of Max   Maximum    Max/    Max/
                                  |Flow|   Occurrence   |Veloc|    Full    Full
  Link                 Type          CMS  days hr:min     m/sec    Flow   Depth
  -----------------------------------------------------------------------------
  C1                   CONDUIT     0.039     0  01:36      1.20    0.01    0.11
  C10                  CONDUIT     1.249     0  00:36      1.85    0.13    0.62
  C11                  CONDUIT     0.232     0  04:53      1.85    0.01    0.25
  C12                  CONDUIT     0.165     0  03:40      1.66    0.01    0.11
  C13                  CONDUIT     1.348     0  00:28      3.39    0.08    0.54
  C14                  CONDUIT     0.271     0  00:51      2.08    0.02    0.09
  C15                  CONDUIT     0.486     0  00:34      3.63    1.54    0.83
  C16                  CONDUIT     0.485     0  00:32      1.77    0.05    0.16
  C17                  CONDUIT     1.364     0  00:26      3.63    0.07    0.18
  C18                  CONDUIT     3.596     0  00:40      5.94    0.13    0.62
  C19                  CONDUIT     0.140     0  00:55      1.69    0.05    0.52
  C2                   CONDUIT     0.079     0  02:06      1.83    0.09    0.22
  C20                  CONDUIT     4.296     0  00:50      5.30    0.13    0.33
  C21                  CONDUIT     0.202     0  01:09      1.85    1.16    0.69
  C22                  CONDUIT     0.202     0  01:09      1.58    0.09    0.60
  C23                  CONDUIT     3.705     0  00:53      2.71    0.41    0.79
  C3                   CONDUIT     0.133     0  05:28      1.95    0.05    0.15
  C4                   CONDUIT     1.915     0  00:51      4.82    0.46    0.80
  C5                   CONDUIT     0.076     0  00:39      1.49    1.30    1.00
  C6                   CONDUIT     0.076     0  00:39      1.29    1.21    1.00
  C7                   CONDUIT     0.867     0  00:45      2.01    0.21    0.66
  C8                   CONDUIT     0.127     0  00:48      1.90    1.60    0.86
  C9                   CONDUIT     0.127     0  00:49      1.26    0.43    0.59
  V1                   ORIFICE     0.271     0  00:49                      1.00
  V2                   ORIFICE     0.140     0  00:45                      1.00
  V3                   ORIFICE     0.133     0  05:25                      1.00
  V4                   ORIFICE     0.080     0  02:00                      1.00
  V5                   ORIFICE     0.039     0  00:51                      1.00
  V6                   ORIFICE     0.175     0  01:35                      1.00
  
  
  ***************************
  Flow Classification Summary
  ***************************
  
  -------------------------------------------------------------------------------------
                      Adjusted    ---------- Fraction of Time in Flow Class ---------- 
                       /Actual         Up    Down  Sub   Sup   Up    Down  Norm  Inlet 
  Conduit               Length    Dry  Dry   Dry   Crit  Crit  Crit  Crit  Ltd   Ctrl  
  -------------------------------------------------------------------------------------
  C1                      1.00   0.00  0.00  0.00  0.34  0.66  0.00  0.00  0.95  0.00
  C10                     1.00   0.00  0.00  0.00  0.91  0.09  0.00  0.00  0.97  0.00
  C11                     1.00   0.00  0.00  0.00  0.29  0.71  0.00  0.00  1.00  0.00
  C12                     1.00   0.00  0.00  0.00  0.41  0.59  0.00  0.00  0.54  0.00
  C13                     1.00   0.00  0.00  0.00  0.91  0.09  0.00  0.00  0.94  0.00
  C14                     1.00   0.01  0.00  0.00  0.01  0.99  0.00  0.00  0.53  0.00
  C15                     1.00   0.01  0.00  0.00  0.00  0.99  0.00  0.00  0.00  0.00
  C16                     1.00   0.00  0.01  0.00  0.56  0.42  0.00  0.00  0.15  0.00
  C17                     1.00   0.00  0.00  0.00  0.61  0.39  0.00  0.00  0.94  0.00
  C18                     1.00   0.00  0.00  0.00  0.94  0.06  0.00  0.00  0.97  0.00
  C19                     1.00   0.00  0.00  0.00  0.80  0.20  0.00  0.00  1.00  0.00
  C2                      1.00   0.00  0.00  0.00  0.20  0.80  0.00  0.00  0.98  0.00
  C20                     1.00   0.00  0.00  0.00  0.70  0.30  0.00  0.00  0.97  0.00
  C21                     1.00   0.00  0.00  0.00  0.01  0.99  0.00  0.00  0.00  0.00
  C22                     1.00   0.00  0.00  0.00  0.80  0.20  0.00  0.00  1.00  0.00
  C23                     1.00   0.00  0.00  0.00  0.95  0.05  0.00  0.00  0.93  0.00
  C3                      1.00   0.00  0.01  0.00  0.04  0.95  0.00  0.00  0.65  0.00
  C4                      1.00   0.00  0.00  0.00  0.95  0.05  0.00  0.00  0.96  0.00
  C5                      1.00   0.00  0.00  0.00  0.89  0.11  0.00  0.00  0.84  0.00
  C6                      1.00   0.00  0.00  0.00  0.23  0.76  0.00  0.00  0.00  0.00
  C7                      1.00   0.00  0.00  0.00  0.93  0.07  0.00  0.00  0.96  0.00
  C8                      1.00   0.00  0.00  0.00  0.35  0.65  0.00  0.00  0.00  0.00
  C9                      1.00   0.00  0.00  0.00  1.00  0.00  0.00  0.00  1.00  0.00
  
  
  *************************
  Conduit Surcharge Summary
  *************************
  
  ----------------------------------------------------------------------------
                                                           Hours        Hours 
                         --------- Hours Full --------   Above Full   Capacity
  Conduit                Both Ends  Upstream  Dnstream   Normal Flow   Limited
  ----------------------------------------------------------------------------
  C10                         0.01      0.01      6.98      0.01         0.01
  C13                         0.01      0.01      6.31      0.01         0.01
  C15                         0.01      0.33      0.01      0.35         0.01
  C18                         0.01      0.01      6.94      0.01         0.01
  C21                         0.01      0.52      0.01      0.51         0.01
  C22                         0.01      0.01      0.09      0.01         0.01
  C23                         0.01      0.01      7.06      0.01         0.01
  C4                          0.01      0.01      7.12      0.01         0.01
  C5                          0.89      0.93      0.98      0.95         0.87
  C6                          0.09      0.87      0.09      0.80         0.09
  C7                          0.01      0.01      6.95      0.01         0.01
  C8                          0.01      0.50      0.01      0.52         0.01
  

  Analysis begun on:  Sun Jul 17 21:06:10 2022
  Analysis ended on:  Sun Jul 17 21:06:10 2022
  Total elapsed time: < 1 sec