
  EPA STORM WATER MANAGEMENT MODEL - VERSION 5.1 (Build 5.3.0.dev0)
  --------------------------------------------------------------

  
  *********************************************************
  NOTE: The summary statistics displayed in this report are
  based on results found at every computational time step,  
  not just on results from each reporting time step.
  *********************************************************
  
  ****************
  Analysis Options
  ****************
  Flow Units ............... CMS
  Process Models:
    Rainfall/Runoff ........ YES
    RDII ................... NO
    Snowmelt ............... NO
    Groundwater ............ NO
    Flow Routing ........... YES
    Ponding Allowed ........ NO
    Water Quality .......... NO
  Infiltration Method ...... HORTON
  Flow Routing Method ...... DYNWAVE
  Surcharge Method ......... EXTRAN
  Starting Date ............ 07/24/2008 15:30:00
  Ending Date .............. 07/25/2008 00:50:00
  Antecedent Dry Days ...... 0.0
  Report Time Step ......... 00:05:00
  Wet Time Step ............ 00:05:00
  Dry Time Step ............ 01:00:00
  Routing Time Step ........ 30.00 sec
  Variable Time Step ....... YES
  Maximum Trials ........... 8
  Number of Threads ........ 1
  Head Tolerance ........... 0.001500 m
  
  
  **************************        Volume         Depth
  Runoff Quantity Continuity     hectare-m            mm
  **************************     ---------       -------
  Total Precipitation ......         1.505         8.354
  Evaporation Loss .........         0.000         0.000
  Infiltration Loss ........         0.000         0.000
  Surface Runoff ...........         1.468         8.144
  Final Storage ............         0.041         0.230
  Continuity Error (%) .....        -0.240
  
  
  **************************        Volume        Volume
  Flow Routing Continuity        hectare-m      10^6 ltr
  **************************     ---------     ---------
  Dry Weather Inflow .......         0.232         2.318
  Wet Weather Inflow .......         1.467        14.666
  Groundwater Inflow .......         0.000         0.000
  RDII Inflow ..............         0.000         0.000
  External Inflow ..........         0.000         0.000
  External Outflow .........         0.718         7.184
  Flooding Loss ............         0.011         0.111
  Evaporation Loss .........         0.000         0.000
  Exfiltration Loss ........         0.000         0.000
  Initial Stored Volume ....         0.000         0.000
  Final Stored Volume ......         0.722         7.220
  Continuity Error (%) .....        14.538
  
  
  *************************
  Highest Continuity Errors
  *************************
  Node T2 (37.08%)
  Node T4 (26.77%)
  Node T6 (24.23%)
  Node T5 (21.09%)
  Node T3 (20.66%)
  
  
  ***************************
  Time-Step Critical Elements
  ***************************
  Link C15 (63.56%)
  
  
  ********************************
  Highest Flow Instability Indexes
  ********************************
  Link C13 (5)
  Link V3 (4)
  Link C3 (4)
  Link C11 (3)
  Link C23 (3)
  
  
  *************************
  Routing Time Step Summary
  *************************
  Minimum Time Step           :     0.46 sec
  Average Time Step           :    25.33 sec
  Maximum Time Step           :    30.00 sec
  Percent in Steady State     :     3.12
  Average Iterations per Step :     2.02
  Percent Not Converging      :     0.00
  
  
  ***************************
  Subcatchment Runoff Summary
  ***************************
  
  ------------------------------------------------------------------------------------------------------------------------------
                            Total      Total      Total      Total     Imperv       Perv      Total       Total     Peak  Runoff
                           Precip      Runon       Evap      Infil     Runoff     Runoff     Runoff      Runoff   Runoff   Coeff
  Subcatchment                 mm         mm         mm         mm         mm         mm         mm    10^6 ltr      CMS
  ------------------------------------------------------------------------------------------------------------------------------
  SC01                       8.09       0.00       0.00       0.00       7.97       0.00       7.97        2.63     0.25   0.986
  SC010                      8.09       0.00       0.00       0.00       7.91       0.00       7.91        0.93     0.08   0.978
  SC02                       9.02       0.00       0.00       0.00       8.90       0.00       8.90        2.02     0.33   0.986
  SC03                       9.09       0.00       0.00       0.00       9.02       0.00       9.02        1.62     0.14   0.992
  SC04                       9.02       0.00       0.00       0.00       8.70       0.00       8.70        0.60     0.06   0.964
  SC05                       8.09       0.00       0.00       0.00       7.96       0.00       7.96        1.24     0.11   0.984
  SC06                       7.32       0.00       0.00       0.00       6.87       0.00       6.87        2.24     0.20   0.939
  SC07                       9.02       0.00       0.00       0.00       8.70       0.00       8.70        0.41     0.04   0.964
  SC08                       9.09       0.00       0.00       0.00       8.89       0.00       8.89        2.49     0.19   0.978
  SC09                       7.32       0.00       0.00       0.00       7.07       0.00       7.07        0.49     0.05   0.965
  
  
  ******************
  Node Depth Summary
  ******************
  
  ---------------------------------------------------------------------------------
                                 Average  Maximum  Maximum  Time of Max    Reported
                                   Depth    Depth      HGL   Occurrence   Max Depth
  Node                 Type       Meters   Meters   Meters  days hr:min      Meters
  ---------------------------------------------------------------------------------
  CSO10                JUNCTION     0.13     0.23    30.23     0  01:50        0.23
  CSO7                 JUNCTION     0.10     0.18    34.18     0  01:00        0.17
  CSO8                 JUNCTION     0.16     0.26    32.26     0  01:45        0.26
  CSO9                 JUNCTION     0.11     0.19    40.19     0  07:01        0.19
  J1                   JUNCTION     0.07     0.12    34.12     0  01:51        0.12
  J10                  JUNCTION     0.11     0.18    29.18     0  01:46        0.18
  J11                  JUNCTION     0.12     0.19    31.19     0  01:48        0.19
  J12                  JUNCTION     0.22     0.58    26.58     0  07:55        0.57
  J13                  JUNCTION     0.07     0.16    29.16     0  01:00        0.15
  J14                  JUNCTION     0.12     0.18    20.18     0  06:47        0.18
  J15                  JUNCTION     0.17     0.23    15.23     0  04:00        0.23
  J16                  JUNCTION     0.07     0.13    30.13     0  01:50        0.13
  J17                  JUNCTION     0.05     0.13    20.13     0  05:55        0.13
  J18                  JUNCTION     0.06     0.11    29.11     0  01:52        0.10
  J19                  JUNCTION     0.15     0.17     8.17     0  06:24        0.17
  J2                   JUNCTION     0.06     0.07    25.07     0  07:29        0.07
  J3                   JUNCTION     0.11     0.15    18.15     0  07:10        0.15
  J4                   JUNCTION     0.12     0.20    33.20     0  01:06        0.20
  J5                   JUNCTION     0.07     0.11    32.11     0  01:04        0.11
  J6                   JUNCTION     0.05     0.10    25.10     0  03:55        0.10
  J7                   JUNCTION     0.08     0.14    39.14     0  07:07        0.13
  J8                   JUNCTION     0.11     0.16    36.16     0  07:06        0.16
  J9                   JUNCTION     0.09     0.16    29.16     0  07:25        0.16
  Out_to_WWTP          OUTFALL      0.15     0.17     6.17     0  06:44        0.17
  T1                   STORAGE      3.56     5.00    15.00     0  06:23        5.00
  T2                   STORAGE      2.72     4.50    25.50     0  08:13        4.50
  T3                   STORAGE      2.42     4.58    26.58     0  07:51        4.57
  T4                   STORAGE      2.88     4.57    31.57     0  08:08        4.57
  T5                   STORAGE      2.71     4.06    31.06     0  07:28        4.06
  T6                   STORAGE      2.24     4.90    35.90     0  09:02        4.90
  
  
  *******************
  Node Inflow Summary
  *******************
  
  -------------------------------------------------------------------------------------------------
                                  Maximum  Maximum                  Lateral       Total        Flow
                                  Lateral    Total  Time of Max      Inflow      Inflow     Balance
                                   Inflow   Inflow   Occurrence      Volume      Volume       Error
  Node                 Type           CMS      CMS  days hr:min    10^6 ltr    10^6 ltr     Percent
  -------------------------------------------------------------------------------------------------
  CSO10                JUNCTION     0.084    0.084     0  01:50        1.01        1.01       0.003
  CSO7                 JUNCTION     0.049    0.049     0  01:00       0.589       0.589       0.032
  CSO8                 JUNCTION     0.189    0.189     0  01:45        2.58        2.58       0.015
  CSO9                 JUNCTION     0.049    0.049     0  07:05       0.607       0.607       0.032
  J1                   JUNCTION     0.128    0.128     0  01:50        1.58        1.58      -0.138
  J10                  JUNCTION     0.146    0.326     0  01:45        1.86        4.43      -0.090
  J11                  JUNCTION     0.000    0.189     0  01:45           0        2.58       0.088
  J12                  JUNCTION     0.000    0.477     0  07:06           0        6.45       3.575
  J13                  JUNCTION     0.343    0.343     0  01:00        2.31        2.31      -0.372
  J14                  JUNCTION     0.000    0.176     0  07:10           0        2.64       0.274
  J15                  JUNCTION     0.000    0.507     0  03:56           0        8.54       0.744
  J16                  JUNCTION     0.261    0.261     0  01:50        2.97        2.97      -0.103
  J17                  JUNCTION     0.000    0.116     0  05:50           0       0.568       0.571
  J18                  JUNCTION     0.000    0.084     0  01:51           0        1.01      -0.050
  J19                  JUNCTION     0.000    0.271     0  06:23           0         7.2       0.159
  J2                   JUNCTION     0.000    0.035     0  07:28           0       0.918       0.518
  J3                   JUNCTION     0.000    0.237     0  07:10           0        4.03       0.861
  J4                   JUNCTION     0.000    0.049     0  01:01           0       0.589       0.227
  J5                   JUNCTION     0.064    0.105     0  01:03       0.677        1.27      -0.076
  J6                   JUNCTION     0.000    0.056     0  03:50           0       0.482       0.480
  J7                   JUNCTION     0.000    0.049     0  07:02           0       0.607       0.190
  J8                   JUNCTION     0.205    0.251     0  07:05        2.81        3.41       0.014
  J9                   JUNCTION     0.000    0.162     0  07:24           0           2       0.266
  Out_to_WWTP          OUTFALL      0.000    0.271     0  06:24           0        7.18       0.000
  T1                   STORAGE      0.000    0.471     0  04:00           0        8.48       8.005
  T2                   STORAGE      0.000    0.338     0  01:01           0        2.31      58.942
  T3                   STORAGE      0.000    0.382     0  07:08           0        6.23      26.046
  T4                   STORAGE      0.000    0.104     0  01:05           0        1.27      36.558
  T5                   STORAGE      0.000    0.127     0  01:51           0        1.58      26.722
  T6                   STORAGE      0.000    0.247     0  07:06           0        3.41      31.979
  
  
  **********************
  Node Surcharge Summary
  **********************
  
  No nodes were surcharged.
  
  
  *********************
  Node Flooding Summary
  *********************
  
  Flooding refers to all water that overflows a node, whether it ponds or not.
  --------------------------------------------------------------------------
                                                             Total   Maximum
                                 Maximum   Time of Max       Flood    Ponded
                        Hours       Rate    Occurrence      Volume     Depth
  Node                 Flooded       CMS   days hr:min    10^6 ltr    Meters
  --------------------------------------------------------------------------
  T1                      0.60     0.088      0  06:23       0.111     0.000
  
  
  **********************
  Storage Volume Summary
  **********************
  
  --------------------------------------------------------------------------------------------------
                         Average     Avg  Evap Exfil       Maximum     Max    Time of Max    Maximum
                          Volume    Pcnt  Pcnt  Pcnt        Volume    Pcnt     Occurrence    Outflow
  Storage Unit           1000 m3    Full  Loss  Loss       1000 m3    Full    days hr:min        CMS
  --------------------------------------------------------------------------------------------------
  T1                       0.498      71     0     0         0.700     100       0  06:23      0.271
  T2                       0.544      54     0     0         0.900      90       0  08:13      0.116
  T3                       1.259      48     0     0         2.381      92       0  07:51      0.176
  T4                       0.288      58     0     0         0.457      91       0  08:08      0.056
  T5                       0.271      54     0     0         0.406      81       0  07:28      0.035
  T6                       0.269      45     0     0         0.588      98       0  09:02      0.162
  
  
  ***********************
  Outfall Loading Summary
  ***********************
  
  -----------------------------------------------------------
                         Flow       Avg       Max       Total
                         Freq      Flow      Flow      Volume
  Outfall Node           Pcnt       CMS       CMS    10^6 ltr
  -----------------------------------------------------------
  Out_to_WWTP           99.17     0.217     0.271       7.184
  -----------------------------------------------------------
  System                99.17     0.217     0.271       7.184
  
  
  ********************
  Link Flow Summary
  ********************
  
  -----------------------------------------------------------------------------
                                 Maximum  Time of Max   Maximum    Max/    Max/
                                  |Flow|   Occurrence   |Veloc|    Full    Full
  Link                 Type          CMS  days hr:min     m/sec    Flow   Depth
  -----------------------------------------------------------------------------
  C1                   CONDUIT     0.035     0  07:29      1.04    0.01    0.11
  C10                  CONDUIT     0.247     0  07:06      1.62    0.03    0.55
  C11                  CONDUIT     0.234     0  07:10      1.80    0.01    0.09
  C12                  CONDUIT     0.162     0  07:25      1.20    0.01    0.17
  C13                  CONDUIT     0.382     0  07:08      1.83    0.02    0.64
  C14                  CONDUIT     0.271     0  06:24      2.08    0.02    0.09
  C15                  CONDUIT     0.189     0  01:45      2.41    0.60    0.50
  C16                  CONDUIT     0.188     0  01:48      1.32    0.02    0.09
  C17                  CONDUIT     0.325     0  01:47      2.19    0.02    0.17
  C18                  CONDUIT     0.338     0  01:01      3.92    0.01    0.53
  C19                  CONDUIT     0.113     0  05:55      1.36    0.04    0.16
  C2                   CONDUIT     0.055     0  03:55      1.40    0.06    0.20
  C20                  CONDUIT     0.259     0  01:51      3.28    0.01    0.09
  C21                  CONDUIT     0.084     0  01:51      1.55    0.48    0.39
  C22                  CONDUIT     0.082     0  01:52      1.14    0.04    0.21
  C23                  CONDUIT     0.471     0  04:00      1.53    0.05    0.58
  C3                   CONDUIT     0.176     0  07:10      2.17    0.07    0.17
  C4                   CONDUIT     0.127     0  01:51      3.48    0.03    0.56
  C5                   CONDUIT     0.049     0  01:01      1.25    0.83    0.73
  C6                   CONDUIT     0.045     0  01:06      1.21    0.72    0.52
  C7                   CONDUIT     0.104     0  01:05      1.41    0.03    0.55
  C8                   CONDUIT     0.049     0  07:02      1.26    0.62    0.51
  C9                   CONDUIT     0.047     0  07:07      0.96    0.16    0.30
  V1                   ORIFICE     0.271     0  06:23                      1.00
  V2                   ORIFICE     0.116     0  05:50                      1.00
  V3                   ORIFICE     0.176     0  07:10                      1.00
  V4                   ORIFICE     0.056     0  03:50                      1.00
  V5                   ORIFICE     0.035     0  07:28                      1.00
  V6                   ORIFICE     0.162     0  07:24                      1.00
  
  
  ***************************
  Flow Classification Summary
  ***************************
  
  -------------------------------------------------------------------------------------
                      Adjusted    ---------- Fraction of Time in Flow Class ---------- 
                       /Actual         Up    Down  Sub   Sup   Up    Down  Norm  Inlet 
  Conduit               Length    Dry  Dry   Dry   Crit  Crit  Crit  Crit  Ltd   Ctrl  
  -------------------------------------------------------------------------------------
  C1                      1.00   0.00  0.00  0.00  0.28  0.72  0.00  0.00  0.96  0.00
  C10                     1.00   0.00  0.00  0.00  0.97  0.03  0.00  0.00  0.98  0.00
  C11                     1.00   0.00  0.00  0.00  0.31  0.69  0.00  0.00  1.00  0.00
  C12                     1.00   0.00  0.00  0.00  0.82  0.18  0.00  0.00  1.00  0.00
  C13                     1.00   0.00  0.00  0.00  0.88  0.12  0.00  0.00  0.63  0.00
  C14                     1.00   0.00  0.00  0.00  0.01  0.99  0.00  0.00  0.49  0.00
  C15                     1.00   0.00  0.00  0.00  0.00  1.00  0.00  0.00  0.00  0.00
  C16                     1.00   0.00  0.00  0.00  0.14  0.86  0.00  0.00  0.17  0.00
  C17                     1.00   0.00  0.00  0.00  0.26  0.74  0.00  0.00  0.96  0.00
  C18                     1.00   0.00  0.00  0.00  0.92  0.08  0.00  0.00  0.97  0.00
  C19                     1.00   0.00  0.00  0.00  0.96  0.04  0.00  0.00  1.00  0.00
  C2                      1.00   0.00  0.00  0.00  0.74  0.26  0.00  0.00  0.96  0.00
  C20                     1.00   0.00  0.00  0.00  0.33  0.67  0.00  0.00  0.98  0.00
  C21                     1.00   0.00  0.00  0.00  0.00  1.00  0.00  0.00  0.00  0.00
  C22                     1.00   0.00  0.00  0.00  0.89  0.11  0.00  0.00  1.00  0.00
  C23                     1.00   0.00  0.00  0.00  0.95  0.05  0.00  0.00  0.96  0.00
  C3                      1.00   0.00  0.00  0.00  0.05  0.95  0.00  0.00  0.31  0.00
  C4                      1.00   0.00  0.00  0.00  0.97  0.03  0.00  0.00  0.98  0.00
  C5                      1.00   0.00  0.00  0.00  0.86  0.14  0.00  0.00  0.98  0.00
  C6                      1.00   0.00  0.00  0.00  0.01  0.99  0.00  0.00  0.00  0.00
  C7                      1.00   0.00  0.00  0.00  0.92  0.08  0.00  0.00  0.97  0.00
  C8                      1.00   0.00  0.00  0.00  0.02  0.98  0.00  0.00  0.00  0.00
  C9                      1.00   0.00  0.00  0.00  1.00  0.00  0.00  0.00  1.00  0.00
  
  
  *************************
  Conduit Surcharge Summary
  *************************
  
  ----------------------------------------------------------------------------
                                                           Hours        Hours 
                         --------- Hours Full --------   Above Full   Capacity
  Conduit                Both Ends  Upstream  Dnstream   Normal Flow   Limited
  ----------------------------------------------------------------------------
  C10                         0.01      0.01      4.64      0.01         0.01
  C13                         0.01      0.01      4.86      0.01         0.01
  C18                         0.01      0.01      5.47      0.01         0.01
  C23                         0.01      0.01      7.94      0.01         0.01
  C4                          0.01      0.01      8.03      0.01         0.01
  C7                          0.01      0.01      7.90      0.01         0.01
  

  Analysis begun on:  Sun Jul 17 20:53:22 2022
  Analysis ended on:  Sun Jul 17 20:53:24 2022
  Total elapsed time: 00:00:02