
  EPA STORM WATER MANAGEMENT MODEL - VERSION 5.1 (Build 5.3.0.dev0)
  --------------------------------------------------------------

  
  *********************************************************
  NOTE: The summary statistics displayed in this report are
  based on results found at every computational time step,  
  not just on results from each reporting time step.
  *********************************************************
  
  ****************
  Analysis Options
  ****************
  Flow Units ............... CMS
  Process Models:
    Rainfall/Runoff ........ YES
    RDII ................... NO
    Snowmelt ............... NO
    Groundwater ............ NO
    Flow Routing ........... YES
    Ponding Allowed ........ NO
    Water Quality .......... NO
  Infiltration Method ...... HORTON
  Flow Routing Method ...... DYNWAVE
  Surcharge Method ......... EXTRAN
  Starting Date ............ 12/24/2007 21:15:00
  Ending Date .............. 12/25/2007 04:50:00
  Antecedent Dry Days ...... 0.0
  Report Time Step ......... 00:05:00
  Wet Time Step ............ 00:05:00
  Dry Time Step ............ 01:00:00
  Routing Time Step ........ 30.00 sec
  Variable Time Step ....... YES
  Maximum Trials ........... 8
  Number of Threads ........ 1
  Head Tolerance ........... 0.001500 m
  
  
  **************************        Volume         Depth
  Runoff Quantity Continuity     hectare-m            mm
  **************************     ---------       -------
  Total Precipitation ......         1.363         7.563
  Evaporation Loss .........         0.000         0.000
  Infiltration Loss ........         0.000         0.000
  Surface Runoff ...........         1.335         7.408
  Final Storage ............         0.036         0.202
  Continuity Error (%) .....        -0.628
  
  
  **************************        Volume        Volume
  Flow Routing Continuity        hectare-m      10^6 ltr
  **************************     ---------     ---------
  Dry Weather Inflow .......         0.072         0.722
  Wet Weather Inflow .......         1.336        13.357
  Groundwater Inflow .......         0.000         0.000
  RDII Inflow ..............         0.000         0.000
  External Inflow ..........         0.000         0.000
  External Outflow .........         0.646         6.459
  Flooding Loss ............         0.050         0.495
  Evaporation Loss .........         0.000         0.000
  Exfiltration Loss ........         0.000         0.000
  Initial Stored Volume ....         0.000         0.000
  Final Stored Volume ......         0.569         5.688
  Continuity Error (%) .....        10.202
  
  
  *************************
  Highest Continuity Errors
  *************************
  Node T2 (32.50%)
  Node T6 (21.51%)
  Node T5 (20.02%)
  Node T4 (19.58%)
  Node T3 (19.28%)
  
  
  ***************************
  Time-Step Critical Elements
  ***************************
  Link C15 (35.71%)
  
  
  ********************************
  Highest Flow Instability Indexes
  ********************************
  Link C20 (3)
  Link C21 (3)
  Link C8 (3)
  Link C15 (2)
  Link C23 (2)
  
  
  *************************
  Routing Time Step Summary
  *************************
  Minimum Time Step           :     0.02 sec
  Average Time Step           :    25.86 sec
  Maximum Time Step           :    30.00 sec
  Percent in Steady State     :     3.96
  Average Iterations per Step :     2.79
  Percent Not Converging      :     4.73
  
  
  ***************************
  Subcatchment Runoff Summary
  ***************************
  
  ------------------------------------------------------------------------------------------------------------------------------
                            Total      Total      Total      Total     Imperv       Perv      Total       Total     Peak  Runoff
                           Precip      Runon       Evap      Infil     Runoff     Runoff     Runoff      Runoff   Runoff   Coeff
  Subcatchment                 mm         mm         mm         mm         mm         mm         mm    10^6 ltr      CMS
  ------------------------------------------------------------------------------------------------------------------------------
  SC01                       8.09       0.00       0.00       0.00       8.01       0.00       8.01        2.64     0.74   0.990
  SC010                      8.09       0.00       0.00       0.00       7.94       0.00       7.94        0.93     0.20   0.982
  SC02                       7.64       0.00       0.00       0.00       7.54       0.00       7.54        1.72     0.56   0.987
  SC03                       7.45       0.00       0.00       0.00       7.45       0.00       7.45        1.34     0.68   1.000
  SC04                       7.64       0.00       0.00       0.00       7.35       0.00       7.35        0.51     0.11   0.962
  SC05                       8.09       0.00       0.00       0.00       7.99       0.00       7.99        1.25     0.32   0.988
  SC06                       6.82       0.00       0.00       0.00       6.48       0.00       6.48        2.11     0.40   0.949
  SC07                       7.64       0.00       0.00       0.00       7.35       0.00       7.35        0.35     0.07   0.962
  SC08                       7.45       0.00       0.00       0.00       7.32       0.00       7.32        2.05     0.60   0.982
  SC09                       6.82       0.00       0.00       0.00       6.63       0.00       6.63        0.46     0.10   0.971
  
  
  ******************
  Node Depth Summary
  ******************
  
  ---------------------------------------------------------------------------------
                                 Average  Maximum  Maximum  Time of Max    Reported
                                   Depth    Depth      HGL   Occurrence   Max Depth
  Node                 Type       Meters   Meters   Meters  days hr:min      Meters
  ---------------------------------------------------------------------------------
  CSO10                JUNCTION     0.19     1.00    31.00     0  00:20        1.00
  CSO7                 JUNCTION     0.18     1.20    35.20     0  00:28        1.20
  CSO8                 JUNCTION     0.33     2.00    34.00     0  00:13        2.00
  CSO9                 JUNCTION     0.16     2.00    42.00     0  00:50        2.00
  J1                   JUNCTION     0.08     0.19    34.19     0  00:21        0.19
  J10                  JUNCTION     0.11     0.31    29.31     0  00:17        0.30
  J11                  JUNCTION     0.12     0.29    31.29     0  00:25        0.29
  J12                  JUNCTION     0.15     0.35    26.35     0  00:19        0.35
  J13                  JUNCTION     0.07     0.20    29.20     0  00:25        0.20
  J14                  JUNCTION     0.12     0.14    20.14     0  06:19        0.14
  J15                  JUNCTION     0.19     0.32    15.32     0  00:27        0.31
  J16                  JUNCTION     0.08     0.21    30.21     0  00:21        0.20
  J17                  JUNCTION     0.06     0.07    20.07     0  05:59        0.07
  J18                  JUNCTION     0.07     0.16    29.16     0  00:25        0.16
  J19                  JUNCTION     0.15     0.17     8.17     0  01:02        0.17
  J2                   JUNCTION     0.07     0.07    25.07     0  01:43        0.07
  J3                   JUNCTION     0.11     0.12    18.12     0  06:02        0.12
  J4                   JUNCTION     0.15     0.91    33.91     0  00:28        0.89
  J5                   JUNCTION     0.06     0.14    32.14     0  00:30        0.14
  J6                   JUNCTION     0.06     0.06    25.06     0  02:45        0.06
  J7                   JUNCTION     0.08     0.20    39.20     0  01:00        0.20
  J8                   JUNCTION     0.11     0.23    36.23     0  01:00        0.23
  J9                   JUNCTION     0.09     0.11    29.11     0  02:25        0.11
  Out_to_WWTP          OUTFALL      0.15     0.17     6.17     0  01:55        0.17
  T1                   STORAGE      3.86     5.00    15.00     0  01:01        5.00
  T2                   STORAGE      2.51     3.12    24.12     0  05:57        3.12
  T3                   STORAGE      2.62     3.38    25.38     0  06:14        3.38
  T4                   STORAGE      2.22     2.86    29.86     0  02:43        2.86
  T5                   STORAGE      2.90     3.80    30.80     0  01:41        3.80
  T6                   STORAGE      3.60     5.00    36.00     0  02:03        5.00
  
  
  *******************
  Node Inflow Summary
  *******************
  
  -------------------------------------------------------------------------------------------------
                                  Maximum  Maximum                  Lateral       Total        Flow
                                  Lateral    Total  Time of Max      Inflow      Inflow     Balance
                                   Inflow   Inflow   Occurrence      Volume      Volume       Error
  Node                 Type           CMS      CMS  days hr:min    10^6 ltr    10^6 ltr     Percent
  -------------------------------------------------------------------------------------------------
  CSO10                JUNCTION     0.207    0.207     0  00:25       0.962       0.962       0.003
  CSO7                 JUNCTION     0.078    0.078     0  00:30       0.407       0.407       0.111
  CSO8                 JUNCTION     0.596    0.596     0  00:15        2.05        2.05      -0.005
  CSO9                 JUNCTION     0.100    0.100     0  00:25       0.497       0.497       0.097
  J1                   JUNCTION     0.332    0.332     0  00:20        1.36        1.36      -0.212
  J10                  JUNCTION     0.687    1.047     0  00:16        1.41        3.42      -0.073
  J11                  JUNCTION     0.000    0.486     0  00:24           0        2.01       0.243
  J12                  JUNCTION     0.000    1.062     0  00:17           0        5.16       0.024
  J13                  JUNCTION     0.564    0.564     0  00:25        1.81        1.81      -0.681
  J14                  JUNCTION     0.000    0.101     0  06:14           0        2.46       0.249
  J15                  JUNCTION     0.000    0.943     0  00:23           0         8.1       0.852
  J16                  JUNCTION     0.744    0.744     0  00:20        2.75        2.76      -0.134
  J17                  JUNCTION     0.000    0.026     0  05:57           0       0.646       0.939
  J18                  JUNCTION     0.000    0.202     0  00:25           0       0.961      -0.034
  J19                  JUNCTION     0.000    0.271     0  01:01           0        6.47       0.173
  J2                   JUNCTION     0.000    0.034     0  01:41           0       0.818       0.535
  J3                   JUNCTION     0.000    0.153     0  06:00           0        3.78       0.919
  J4                   JUNCTION     0.000    0.076     0  00:27           0       0.404       0.487
  J5                   JUNCTION     0.108    0.179     0  00:30       0.533       0.935      -0.115
  J6                   JUNCTION     0.000    0.021     0  02:43           0       0.514       0.630
  J7                   JUNCTION     0.000    0.100     0  00:25           0       0.496       0.462
  J8                   JUNCTION     0.405    0.500     0  01:00         2.3        2.79      -0.059
  J9                   JUNCTION     0.000    0.075     0  02:03           0        1.76       1.135
  Out_to_WWTP          OUTFALL      0.000    0.271     0  01:03           0        6.46       0.000
  T1                   STORAGE      0.000    0.887     0  00:27           0        8.03       8.248
  T2                   STORAGE      0.000    0.560     0  00:25           0        1.82      48.153
  T3                   STORAGE      0.000    1.083     0  00:20           0        5.16      23.880
  T4                   STORAGE      0.000    0.178     0  00:31           0       0.936      24.339
  T5                   STORAGE      0.000    0.329     0  00:21           0        1.36      25.037
  T6                   STORAGE      0.000    0.499     0  01:00           0        2.79      27.411
  
  
  **********************
  Node Surcharge Summary
  **********************
  
  Surcharging occurs when water rises above the top of the highest conduit.
  ---------------------------------------------------------------------
                                               Max. Height   Min. Depth
                                   Hours       Above Crown    Below Rim
  Node                 Type      Surcharged         Meters       Meters
  ---------------------------------------------------------------------
  CSO10                JUNCTION        0.39          0.560        0.000
  CSO7                 JUNCTION        0.58          0.945        0.000
  CSO8                 JUNCTION        0.73          1.547        0.000
  CSO9                 JUNCTION        0.45          1.682        0.000
  J4                   JUNCTION        0.52          0.606        1.094
  
  
  *********************
  Node Flooding Summary
  *********************
  
  Flooding refers to all water that overflows a node, whether it ponds or not.
  --------------------------------------------------------------------------
                                                             Total   Maximum
                                 Maximum   Time of Max       Flood    Ponded
                        Hours       Rate    Occurrence      Volume     Depth
  Node                 Flooded       CMS   days hr:min    10^6 ltr    Meters
  --------------------------------------------------------------------------
  CSO10                   0.10     0.016      0  00:20       0.001     0.000
  CSO7                    0.18     0.008      0  00:28       0.003     0.000
  CSO8                    0.18     0.119      0  00:15       0.043     0.000
  CSO9                    0.01     0.000      0  00:50       0.000     0.000
  T1                      0.72     0.553      0  01:01       0.436     0.000
  T6                      0.37     0.016      0  02:03       0.011     0.000
  
  
  **********************
  Storage Volume Summary
  **********************
  
  --------------------------------------------------------------------------------------------------
                         Average     Avg  Evap Exfil       Maximum     Max    Time of Max    Maximum
                          Volume    Pcnt  Pcnt  Pcnt        Volume    Pcnt     Occurrence    Outflow
  Storage Unit           1000 m3    Full  Loss  Loss       1000 m3    Full    days hr:min        CMS
  --------------------------------------------------------------------------------------------------
  T1                       0.540      77     0     0         0.700     100       0  01:01      0.271
  T2                       0.501      50     0     0         0.623      62       0  05:57      0.026
  T3                       1.363      52     0     0         1.757      68       0  06:14      0.101
  T4                       0.222      44     0     0         0.286      57       0  02:43      0.021
  T5                       0.290      58     0     0         0.380      76       0  01:41      0.034
  T6                       0.432      72     0     0         0.600     100       0  02:03      0.075
  
  
  ***********************
  Outfall Loading Summary
  ***********************
  
  -----------------------------------------------------------
                         Flow       Avg       Max       Total
                         Freq      Flow      Flow      Volume
  Outfall Node           Pcnt       CMS       CMS    10^6 ltr
  -----------------------------------------------------------
  Out_to_WWTP           98.76     0.229     0.271       6.459
  -----------------------------------------------------------
  System                98.76     0.229     0.271       6.459
  
  
  ********************
  Link Flow Summary
  ********************
  
  -----------------------------------------------------------------------------
                                 Maximum  Time of Max   Maximum    Max/    Max/
                                  |Flow|   Occurrence   |Veloc|    Full    Full
  Link                 Type          CMS  days hr:min     m/sec    Flow   Depth
  -----------------------------------------------------------------------------
  C1                   CONDUIT     0.034     0  01:43      0.93    0.01    0.10
  C10                  CONDUIT     0.499     0  01:00      2.10    0.05    0.58
  C11                  CONDUIT     0.153     0  06:02      1.59    0.01    0.11
  C12                  CONDUIT     0.075     0  02:25      1.11    0.01    0.09
  C13                  CONDUIT     1.083     0  00:20      3.60    0.06    0.57
  C14                  CONDUIT     0.271     0  01:03      2.08    0.02    0.09
  C15                  CONDUIT     0.486     0  00:24      3.65    1.54    0.82
  C16                  CONDUIT     0.483     0  00:22      1.74    0.05    0.15
  C17                  CONDUIT     1.059     0  00:17      3.48    0.05    0.16
  C18                  CONDUIT     0.560     0  00:25      3.03    0.02    0.54
  C19                  CONDUIT     0.026     0  05:59      0.55    0.01    0.19
  C2                   CONDUIT     0.021     0  02:45      0.75    0.02    0.16
  C20                  CONDUIT     0.734     0  00:21      3.85    0.02    0.13
  C21                  CONDUIT     0.202     0  00:25      1.86    1.16    0.69
  C22                  CONDUIT     0.202     0  00:26      1.71    0.09    0.30
  C23                  CONDUIT     0.887     0  00:27      2.74    0.10    0.60
  C3                   CONDUIT     0.101     0  06:15      1.68    0.04    0.13
  C4                   CONDUIT     0.329     0  00:21      5.48    0.08    0.59
  C5                   CONDUIT     0.076     0  00:27      1.49    1.30    1.00
  C6                   CONDUIT     0.071     0  00:30      1.28    1.12    0.74
  C7                   CONDUIT     0.178     0  00:31      2.03    0.04    0.57
  C8                   CONDUIT     0.100     0  00:25      2.12    1.26    0.81
  C9                   CONDUIT     0.096     0  01:00      1.24    0.33    0.43
  V1                   ORIFICE     0.271     0  01:01                      1.00
  V2                   ORIFICE     0.026     0  05:57                      0.24
  V3                   ORIFICE     0.101     0  06:14                      0.65
  V4                   ORIFICE     0.021     0  02:43                      0.35
  V5                   ORIFICE     0.034     0  01:41                      1.00
  V6                   ORIFICE     0.075     0  02:03                      0.43
  
  
  ***************************
  Flow Classification Summary
  ***************************
  
  -------------------------------------------------------------------------------------
                      Adjusted    ---------- Fraction of Time in Flow Class ---------- 
                       /Actual         Up    Down  Sub   Sup   Up    Down  Norm  Inlet 
  Conduit               Length    Dry  Dry   Dry   Crit  Crit  Crit  Crit  Ltd   Ctrl  
  -------------------------------------------------------------------------------------
  C1                      1.00   0.00  0.00  0.00  0.19  0.81  0.00  0.00  0.96  0.00
  C10                     1.00   0.00  0.00  0.00  0.92  0.08  0.00  0.00  0.96  0.00
  C11                     1.00   0.00  0.00  0.00  0.26  0.73  0.00  0.00  1.00  0.00
  C12                     1.00   0.00  0.00  0.00  0.38  0.62  0.00  0.00  0.75  0.00
  C13                     1.00   0.00  0.00  0.00  0.92  0.08  0.00  0.00  0.95  0.00
  C14                     1.00   0.01  0.00  0.00  0.01  0.99  0.00  0.00  0.40  0.00
  C15                     1.00   0.01  0.00  0.00  0.00  0.99  0.00  0.00  0.00  0.00
  C16                     1.00   0.00  0.01  0.00  0.18  0.81  0.00  0.00  0.11  0.00
  C17                     1.00   0.00  0.00  0.00  0.37  0.63  0.00  0.00  0.97  0.00
  C18                     1.00   0.00  0.00  0.00  0.93  0.07  0.00  0.00  0.97  0.00
  C19                     1.00   0.00  0.00  0.00  1.00  0.00  0.00  0.00  1.00  0.00
  C2                      1.00   0.00  0.00  0.00  0.94  0.05  0.00  0.00  0.98  0.00
  C20                     1.00   0.00  0.00  0.00  0.62  0.38  0.00  0.00  0.96  0.00
  C21                     1.00   0.00  0.00  0.00  0.03  0.97  0.00  0.00  0.00  0.00
  C22                     1.00   0.00  0.00  0.00  0.75  0.25  0.00  0.00  1.00  0.00
  C23                     1.00   0.00  0.00  0.00  0.92  0.08  0.00  0.00  0.95  0.00
  C3                      1.00   0.00  0.01  0.00  0.03  0.96  0.00  0.00  0.02  0.00
  C4                      1.00   0.00  0.00  0.00  0.93  0.07  0.00  0.00  0.97  0.00
  C5                      1.00   0.00  0.00  0.00  0.80  0.20  0.00  0.00  0.87  0.00
  C6                      1.00   0.00  0.00  0.00  0.21  0.79  0.00  0.00  0.00  0.00
  C7                      1.00   0.00  0.00  0.00  0.92  0.08  0.00  0.00  0.96  0.00
  C8                      1.00   0.00  0.00  0.00  0.19  0.81  0.00  0.00  0.00  0.00
  C9                      1.00   0.00  0.00  0.00  0.95  0.05  0.00  0.00  1.00  0.00
  
  
  *************************
  Conduit Surcharge Summary
  *************************
  
  ----------------------------------------------------------------------------
                                                           Hours        Hours 
                         --------- Hours Full --------   Above Full   Capacity
  Conduit                Both Ends  Upstream  Dnstream   Normal Flow   Limited
  ----------------------------------------------------------------------------
  C10                         0.01      0.01      6.88      0.01         0.01
  C13                         0.01      0.01      6.67      0.01         0.01
  C15                         0.01      0.73      0.01      0.75         0.01
  C18                         0.01      0.01      6.76      0.01         0.01
  C21                         0.01      0.39      0.01      0.33         0.01
  C23                         0.01      0.01      7.06      0.01         0.01
  C4                          0.01      0.01      7.12      0.01         0.01
  C5                          0.54      0.58      0.63      0.60         0.52
  C6                          0.01      0.52      0.01      0.29         0.01
  C7                          0.01      0.01      6.93      0.01         0.01
  C8                          0.01      0.45      0.01      0.48         0.01
  

  Analysis begun on:  Sun Jul 17 20:32:58 2022
  Analysis ended on:  Sun Jul 17 20:32:58 2022
  Total elapsed time: < 1 sec