
  EPA STORM WATER MANAGEMENT MODEL - VERSION 5.1 (Build 5.3.0.dev0)
  --------------------------------------------------------------

  
  *********************************************************
  NOTE: The summary statistics displayed in this report are
  based on results found at every computational time step,  
  not just on results from each reporting time step.
  *********************************************************
  
  ****************
  Analysis Options
  ****************
  Flow Units ............... CMS
  Process Models:
    Rainfall/Runoff ........ YES
    RDII ................... NO
    Snowmelt ............... NO
    Groundwater ............ NO
    Flow Routing ........... YES
    Ponding Allowed ........ NO
    Water Quality .......... NO
  Infiltration Method ...... HORTON
  Flow Routing Method ...... DYNWAVE
  Surcharge Method ......... EXTRAN
  Starting Date ............ 07/25/2007 01:10:00
  Ending Date .............. 07/25/2007 12:45:00
  Antecedent Dry Days ...... 0.0
  Report Time Step ......... 00:05:00
  Wet Time Step ............ 00:05:00
  Dry Time Step ............ 01:00:00
  Routing Time Step ........ 30.00 sec
  Variable Time Step ....... YES
  Maximum Trials ........... 8
  Number of Threads ........ 1
  Head Tolerance ........... 0.001500 m
  
  
  **************************        Volume         Depth
  Runoff Quantity Continuity     hectare-m            mm
  **************************     ---------       -------
  Total Precipitation ......         2.295        12.737
  Evaporation Loss .........         0.000         0.000
  Infiltration Loss ........         0.000         0.000
  Surface Runoff ...........         2.271        12.605
  Final Storage ............         0.027         0.148
  Continuity Error (%) .....        -0.125
  
  
  **************************        Volume        Volume
  Flow Routing Continuity        hectare-m      10^6 ltr
  **************************     ---------     ---------
  Dry Weather Inflow .......         0.387         3.873
  Wet Weather Inflow .......         2.272        22.723
  Groundwater Inflow .......         0.000         0.000
  RDII Inflow ..............         0.000         0.000
  External Inflow ..........         0.000         0.000
  External Outflow .........         0.923         9.226
  Flooding Loss ............         0.674         6.741
  Evaporation Loss .........         0.000         0.000
  Exfiltration Loss ........         0.000         0.000
  Initial Stored Volume ....         0.000         0.000
  Final Stored Volume ......         0.796         7.961
  Continuity Error (%) .....        10.035
  
  
  *************************
  Highest Continuity Errors
  *************************
  Node T2 (25.26%)
  Node T5 (18.35%)
  Node T4 (14.98%)
  Node T6 (14.00%)
  Node T3 (12.46%)
  
  
  ***************************
  Time-Step Critical Elements
  ***************************
  Link C15 (59.90%)
  
  
  ********************************
  Highest Flow Instability Indexes
  ********************************
  Link C13 (8)
  Link C11 (3)
  Link C3 (3)
  Link V3 (3)
  Link C2 (2)
  
  
  *************************
  Routing Time Step Summary
  *************************
  Minimum Time Step           :     0.50 sec
  Average Time Step           :    24.14 sec
  Maximum Time Step           :    30.00 sec
  Percent in Steady State     :    10.03
  Average Iterations per Step :     2.46
  Percent Not Converging      :     2.38
  
  
  ***************************
  Subcatchment Runoff Summary
  ***************************
  
  ------------------------------------------------------------------------------------------------------------------------------
                            Total      Total      Total      Total     Imperv       Perv      Total       Total     Peak  Runoff
                           Precip      Runon       Evap      Infil     Runoff     Runoff     Runoff      Runoff   Runoff   Coeff
  Subcatchment                 mm         mm         mm         mm         mm         mm         mm    10^6 ltr      CMS
  ------------------------------------------------------------------------------------------------------------------------------
  SC01                      11.50       0.00       0.00       0.00      11.42       0.00      11.42        3.77     0.40   0.993
  SC010                     11.50       0.00       0.00       0.00      11.38       0.00      11.38        1.34     0.12   0.990
  SC02                      13.85       0.00       0.00       0.00      13.77       0.00      13.77        3.13     0.45   0.994
  SC03                      14.10       0.00       0.00       0.00      14.05       0.00      14.05        2.53     0.26   0.996
  SC04                      13.85       0.00       0.00       0.00      13.66       0.00      13.66        0.94     0.11   0.986
  SC05                      11.50       0.00       0.00       0.00      11.41       0.00      11.41        1.78     0.18   0.992
  SC06                      12.07       0.00       0.00       0.00      11.79       0.00      11.79        3.84     0.32   0.977
  SC07                      13.85       0.00       0.00       0.00      13.66       0.00      13.66        0.65     0.07   0.986
  SC08                      14.10       0.00       0.00       0.00      13.98       0.00      13.98        3.92     0.36   0.992
  SC09                      12.07       0.00       0.00       0.00      11.91       0.00      11.91        0.82     0.08   0.987
  
  
  ******************
  Node Depth Summary
  ******************
  
  ---------------------------------------------------------------------------------
                                 Average  Maximum  Maximum  Time of Max    Reported
                                   Depth    Depth      HGL   Occurrence   Max Depth
  Node                 Type       Meters   Meters   Meters  days hr:min      Meters
  ---------------------------------------------------------------------------------
  CSO10                JUNCTION     0.15     0.31    30.31     0  05:51        0.30
  CSO7                 JUNCTION     0.17     1.20    35.20     0  02:15        1.20
  CSO8                 JUNCTION     0.21     0.87    32.87     0  05:45        0.86
  CSO9                 JUNCTION     0.13     0.62    40.62     0  05:55        0.60
  J1                   JUNCTION     0.08     0.15    34.15     0  05:51        0.15
  J10                  JUNCTION     0.13     0.24    29.24     0  05:46        0.24
  J11                  JUNCTION     0.13     0.26    31.26     0  05:46        0.25
  J12                  JUNCTION     0.63     1.04    27.04     0  05:36        1.04
  J13                  JUNCTION     0.08     0.18    29.18     0  02:10        0.18
  J14                  JUNCTION     0.13     0.19    20.19     0  06:02        0.19
  J15                  JUNCTION     0.20     0.31    15.31     0  05:52        0.31
  J16                  JUNCTION     0.08     0.16    30.16     0  05:51        0.16
  J17                  JUNCTION     0.07     0.15    20.15     0  06:24        0.15
  J18                  JUNCTION     0.07     0.13    29.13     0  05:53        0.13
  J19                  JUNCTION     0.15     0.17     8.17     0  05:35        0.17
  J2                   JUNCTION     0.07     0.08    25.08     0  08:11        0.08
  J3                   JUNCTION     0.12     0.17    18.17     0  06:25        0.17
  J4                   JUNCTION     0.16     0.90    33.90     0  02:15        0.90
  J5                   JUNCTION     0.07     0.14    32.14     0  02:25        0.14
  J6                   JUNCTION     0.07     0.12    25.12     0  07:40        0.12
  J7                   JUNCTION     0.10     0.18    39.18     0  05:57        0.18
  J8                   JUNCTION     0.12     0.21    36.21     0  05:57        0.21
  J9                   JUNCTION     0.12     0.16    29.16     0  06:35        0.16
  Out_to_WWTP          OUTFALL      0.15     0.17     6.17     0  04:12        0.17
  T1                   STORAGE      3.92     5.00    15.00     0  02:59        5.00
  T2                   STORAGE      3.50     5.00    26.00     0  06:11        5.00
  T3                   STORAGE      3.66     5.00    27.00     0  05:35        5.00
  T4                   STORAGE      3.16     4.63    31.63     0  08:31        4.63
  T5                   STORAGE      3.36     5.00    32.00     0  06:09        5.00
  T6                   STORAGE      3.62     5.00    36.00     0  05:56        5.00
  
  
  *******************
  Node Inflow Summary
  *******************
  
  -------------------------------------------------------------------------------------------------
                                  Maximum  Maximum                  Lateral       Total        Flow
                                  Lateral    Total  Time of Max      Inflow      Inflow     Balance
                                   Inflow   Inflow   Occurrence      Volume      Volume       Error
  Node                 Type           CMS      CMS  days hr:min    10^6 ltr    10^6 ltr     Percent
  -------------------------------------------------------------------------------------------------
  CSO10                JUNCTION     0.128    0.128     0  05:50        1.48        1.48      -0.125
  CSO7                 JUNCTION     0.075    0.075     0  02:25       0.936       0.937      -0.008
  CSO8                 JUNCTION     0.365    0.365     0  05:45        4.17        4.18      -0.079
  CSO9                 JUNCTION     0.088    0.088     0  05:55        1.02        1.02       0.038
  J1                   JUNCTION     0.198    0.198     0  05:50        2.34        2.34      -0.161
  J10                  JUNCTION     0.274    0.623     0  05:45        2.91         7.1      -0.029
  J11                  JUNCTION     0.000    0.365     0  05:45           0        4.18       0.002
  J12                  JUNCTION     0.000    0.780     0  05:46           0        11.1       7.043
  J13                  JUNCTION     0.455    0.455     0  02:10         3.6         3.6      -0.229
  J14                  JUNCTION     0.000    0.190     0  06:00           0        4.35      -0.030
  J15                  JUNCTION     0.000    0.884     0  05:50           0        14.2       0.405
  J16                  JUNCTION     0.412    0.412     0  05:50        4.32        4.32      -0.226
  J17                  JUNCTION     0.000    0.140     0  06:15           0        1.55       1.295
  J18                  JUNCTION     0.000    0.128     0  05:51           0        1.48      -0.214
  J19                  JUNCTION     0.000    0.271     0  02:59           0        9.24       0.124
  J2                   JUNCTION     0.000    0.039     0  06:09           0        1.26       0.438
  J3                   JUNCTION     0.000    0.303     0  07:40           0        6.88       0.785
  J4                   JUNCTION     0.000    0.072     0  02:14           0       0.935       0.084
  J5                   JUNCTION     0.107    0.178     0  02:25        1.07        2.01      -0.101
  J6                   JUNCTION     0.000    0.076     0  07:15           0        1.28       0.817
  J7                   JUNCTION     0.000    0.088     0  05:55           0        1.02       0.506
  J8                   JUNCTION     0.352    0.434     0  05:55        4.77        5.79       0.082
  J9                   JUNCTION     0.000    0.175     0  05:56           0        3.94      -0.904
  Out_to_WWTP          OUTFALL      0.000    0.271     0  05:36           0        9.23       0.000
  T1                   STORAGE      0.000    0.853     0  05:53           0        14.1       4.632
  T2                   STORAGE      0.000    0.453     0  02:11           0        3.61      33.805
  T3                   STORAGE      0.000    0.966     0  05:39           0        10.4      14.237
  T4                   STORAGE      0.000    0.177     0  02:25           0        2.01      17.618
  T5                   STORAGE      0.000    0.196     0  05:51           0        2.34      22.474
  T6                   STORAGE      0.000    0.429     0  05:57           0        5.78      16.278
  
  
  **********************
  Node Surcharge Summary
  **********************
  
  Surcharging occurs when water rises above the top of the highest conduit.
  ---------------------------------------------------------------------
                                               Max. Height   Min. Depth
                                   Hours       Above Crown    Below Rim
  Node                 Type      Surcharged         Meters       Meters
  ---------------------------------------------------------------------
  CSO7                 JUNCTION        1.09          0.945        0.000
  CSO8                 JUNCTION        0.60          0.415        1.132
  CSO9                 JUNCTION        0.14          0.299        1.383
  J4                   JUNCTION        1.00          0.602        1.098
  
  
  *********************
  Node Flooding Summary
  *********************
  
  Flooding refers to all water that overflows a node, whether it ponds or not.
  --------------------------------------------------------------------------
                                                             Total   Maximum
                                 Maximum   Time of Max       Flood    Ponded
                        Hours       Rate    Occurrence      Volume     Depth
  Node                 Flooded       CMS   days hr:min    10^6 ltr    Meters
  --------------------------------------------------------------------------
  CSO7                    0.22     0.005      0  02:25       0.002     0.000
  T1                      5.13     0.583      0  05:53       3.709     0.000
  T2                      3.32     0.185      0  06:11       0.148     0.000
  T3                      2.66     0.905      0  05:39       2.221     0.000
  T5                      2.27     0.115      0  06:09       0.218     0.000
  T6                      1.93     0.254      0  05:57       0.437     0.000
  
  
  **********************
  Storage Volume Summary
  **********************
  
  --------------------------------------------------------------------------------------------------
                         Average     Avg  Evap Exfil       Maximum     Max    Time of Max    Maximum
                          Volume    Pcnt  Pcnt  Pcnt        Volume    Pcnt     Occurrence    Outflow
  Storage Unit           1000 m3    Full  Loss  Loss       1000 m3    Full    days hr:min        CMS
  --------------------------------------------------------------------------------------------------
  T1                       0.549      78     0     0         0.700     100       0  02:59      0.271
  T2                       0.699      70     0     0         1.000     100       0  06:11      0.140
  T3                       1.904      73     0     0         2.600     100       0  05:35      0.260
  T4                       0.316      63     0     0         0.463      93       0  08:31      0.076
  T5                       0.336      67     0     0         0.500     100       0  06:09      0.039
  T6                       0.435      72     0     0         0.600     100       0  05:56      0.175
  
  
  ***********************
  Outfall Loading Summary
  ***********************
  
  -----------------------------------------------------------
                         Flow       Avg       Max       Total
                         Freq      Flow      Flow      Volume
  Outfall Node           Pcnt       CMS       CMS    10^6 ltr
  -----------------------------------------------------------
  Out_to_WWTP           98.84     0.225     0.271       9.226
  -----------------------------------------------------------
  System                98.84     0.225     0.271       9.226
  
  
  ********************
  Link Flow Summary
  ********************
  
  -----------------------------------------------------------------------------
                                 Maximum  Time of Max   Maximum    Max/    Max/
                                  |Flow|   Occurrence   |Veloc|    Full    Full
  Link                 Type          CMS  days hr:min     m/sec    Flow   Depth
  -----------------------------------------------------------------------------
  C1                   CONDUIT     0.039     0  07:19      1.00    0.01    0.12
  C10                  CONDUIT     0.429     0  05:57      2.35    0.04    0.57
  C11                  CONDUIT     0.303     0  06:25      1.94    0.02    0.12
  C12                  CONDUIT     0.175     0  06:36      0.99    0.01    0.30
  C13                  CONDUIT     0.966     0  05:39      1.69    0.06    0.76
  C14                  CONDUIT     0.271     0  05:36      2.08    0.02    0.09
  C15                  CONDUIT     0.365     0  05:45      2.70    1.16    0.78
  C16                  CONDUIT     0.356     0  05:46      1.60    0.03    0.12
  C17                  CONDUIT     0.614     0  05:46      2.59    0.03    0.32
  C18                  CONDUIT     0.453     0  02:11      1.27    0.02    0.54
  C19                  CONDUIT     0.140     0  06:25      1.47    0.05    0.23
  C2                   CONDUIT     0.076     0  07:40      1.72    0.09    0.24
  C20                  CONDUIT     0.408     0  05:51      2.14    0.01    0.12
  C21                  CONDUIT     0.128     0  05:51      1.71    0.73    0.49
  C22                  CONDUIT     0.126     0  05:53      1.30    0.06    0.28
  C23                  CONDUIT     0.853     0  05:53      1.28    0.09    0.60
  C3                   CONDUIT     0.192     0  06:03      2.18    0.07    0.18
  C4                   CONDUIT     0.196     0  05:51      1.18    0.05    0.57
  C5                   CONDUIT     0.072     0  02:14      1.40    1.22    1.00
  C6                   CONDUIT     0.071     0  02:25      1.28    1.12    0.74
  C7                   CONDUIT     0.177     0  02:25      1.04    0.04    0.57
  C8                   CONDUIT     0.088     0  05:55      1.74    1.11    0.79
  C9                   CONDUIT     0.084     0  05:57      1.16    0.29    0.40
  V1                   ORIFICE     0.271     0  02:59                      1.00
  V2                   ORIFICE     0.140     0  06:15                      1.00
  V3                   ORIFICE     0.190     0  06:00                      1.00
  V4                   ORIFICE     0.076     0  07:15                      1.00
  V5                   ORIFICE     0.039     0  06:09                      1.00
  V6                   ORIFICE     0.175     0  05:56                      1.00
  
  
  ***************************
  Flow Classification Summary
  ***************************
  
  -------------------------------------------------------------------------------------
                      Adjusted    ---------- Fraction of Time in Flow Class ---------- 
                       /Actual         Up    Down  Sub   Sup   Up    Down  Norm  Inlet 
  Conduit               Length    Dry  Dry   Dry   Crit  Crit  Crit  Crit  Ltd   Ctrl  
  -------------------------------------------------------------------------------------
  C1                      1.00   0.00  0.00  0.00  0.62  0.38  0.00  0.00  0.93  0.00
  C10                     1.00   0.00  0.00  0.00  0.89  0.11  0.00  0.00  0.95  0.00
  C11                     1.00   0.00  0.00  0.00  0.34  0.66  0.00  0.00  1.00  0.00
  C12                     1.00   0.00  0.00  0.00  1.00  0.00  0.00  0.00  1.00  0.00
  C13                     1.00   0.00  0.00  0.00  0.89  0.11  0.00  0.00  0.18  0.00
  C14                     1.00   0.01  0.00  0.00  0.01  0.98  0.00  0.00  0.23  0.00
  C15                     1.00   0.05  0.00  0.00  0.00  0.95  0.00  0.00  0.00  0.00
  C16                     1.00   0.00  0.05  0.00  0.19  0.76  0.00  0.00  0.21  0.00
  C17                     1.00   0.00  0.00  0.00  0.68  0.32  0.00  0.00  0.98  0.00
  C18                     1.00   0.00  0.00  0.00  0.91  0.09  0.00  0.00  0.95  0.00
  C19                     1.00   0.00  0.00  0.00  0.93  0.07  0.00  0.00  1.00  0.00
  C2                      1.00   0.00  0.00  0.00  0.42  0.58  0.00  0.00  0.99  0.00
  C20                     1.00   0.00  0.00  0.00  0.46  0.54  0.00  0.00  0.99  0.00
  C21                     1.00   0.00  0.00  0.00  0.00  1.00  0.00  0.00  0.00  0.00
  C22                     1.00   0.00  0.00  0.00  0.87  0.13  0.00  0.00  1.00  0.00
  C23                     1.00   0.00  0.00  0.00  0.90  0.10  0.00  0.00  0.90  0.00
  C3                      1.00   0.00  0.00  0.00  0.06  0.93  0.00  0.00  0.40  0.00
  C4                      1.00   0.00  0.00  0.00  0.91  0.09  0.00  0.00  0.95  0.00
  C5                      1.00   0.00  0.00  0.00  0.80  0.20  0.00  0.00  0.87  0.00
  C6                      1.00   0.00  0.00  0.00  0.17  0.83  0.00  0.00  0.00  0.00
  C7                      1.00   0.00  0.00  0.00  0.89  0.11  0.00  0.00  0.92  0.00
  C8                      1.00   0.00  0.00  0.00  0.10  0.90  0.00  0.00  0.00  0.00
  C9                      1.00   0.00  0.00  0.00  1.00  0.00  0.00  0.00  1.00  0.00
  
  
  *************************
  Conduit Surcharge Summary
  *************************
  
  ----------------------------------------------------------------------------
                                                           Hours        Hours 
                         --------- Hours Full --------   Above Full   Capacity
  Conduit                Both Ends  Upstream  Dnstream   Normal Flow   Limited
  ----------------------------------------------------------------------------
  C10                         0.01      0.01      9.26      0.01         0.01
  C13                         0.01      0.01      9.04      0.01         0.01
  C15                         0.01      0.60      0.01      0.99         0.01
  C18                         0.01      0.01      9.09      0.01         0.01
  C23                         0.01      0.01      9.50      0.01         0.01
  C4                          0.01      0.01      9.50      0.01         0.01
  C5                          1.06      1.09      1.18      0.88         0.78
  C6                          0.01      1.00      0.01      0.31         0.01
  C7                          0.01      0.01      9.26      0.01         0.01
  C8                          0.01      0.14      0.01      0.14         0.01
  

  Analysis begun on:  Sun Jul 17 20:02:44 2022
  Analysis ended on:  Sun Jul 17 20:02:46 2022
  Total elapsed time: 00:00:02