
  EPA STORM WATER MANAGEMENT MODEL - VERSION 5.1 (Build 5.3.0.dev0)
  --------------------------------------------------------------

  
  *********************************************************
  NOTE: The summary statistics displayed in this report are
  based on results found at every computational time step,  
  not just on results from each reporting time step.
  *********************************************************
  
  ****************
  Analysis Options
  ****************
  Flow Units ............... CMS
  Process Models:
    Rainfall/Runoff ........ YES
    RDII ................... NO
    Snowmelt ............... NO
    Groundwater ............ NO
    Flow Routing ........... YES
    Ponding Allowed ........ NO
    Water Quality .......... NO
  Infiltration Method ...... HORTON
  Flow Routing Method ...... DYNWAVE
  Surcharge Method ......... EXTRAN
  Starting Date ............ 12/13/2007 10:40:00
  Ending Date .............. 12/13/2007 23:00:00
  Antecedent Dry Days ...... 0.0
  Report Time Step ......... 00:05:00
  Wet Time Step ............ 00:05:00
  Dry Time Step ............ 01:00:00
  Routing Time Step ........ 30.00 sec
  Variable Time Step ....... YES
  Maximum Trials ........... 8
  Number of Threads ........ 1
  Head Tolerance ........... 0.001500 m
  
  
  **************************        Volume         Depth
  Runoff Quantity Continuity     hectare-m            mm
  **************************     ---------       -------
  Total Precipitation ......         0.916         5.085
  Evaporation Loss .........         0.000         0.000
  Infiltration Loss ........         0.000         0.000
  Surface Runoff ...........         0.889         4.934
  Final Storage ............         0.028         0.155
  Continuity Error (%) .....        -0.095
  
  
  **************************        Volume        Volume
  Flow Routing Continuity        hectare-m      10^6 ltr
  **************************     ---------     ---------
  Dry Weather Inflow .......         0.481         4.812
  Wet Weather Inflow .......         0.889         8.888
  Groundwater Inflow .......         0.000         0.000
  RDII Inflow ..............         0.000         0.000
  External Inflow ..........         0.000         0.000
  External Outflow .........         0.775         7.754
  Flooding Loss ............         0.008         0.075
  Evaporation Loss .........         0.000         0.000
  Exfiltration Loss ........         0.000         0.000
  Initial Stored Volume ....         0.000         0.000
  Final Stored Volume ......         0.496         4.959
  Continuity Error (%) .....         6.659
  
  
  *************************
  Highest Continuity Errors
  *************************
  Node T2 (26.70%)
  Node T6 (17.35%)
  Node T3 (16.88%)
  Node T4 (15.05%)
  Node T5 (14.35%)
  
  
  ***************************
  Time-Step Critical Elements
  ***************************
  Link C15 (20.38%)
  
  
  ********************************
  Highest Flow Instability Indexes
  ********************************
  Link C20 (3)
  Link C15 (3)
  Link C4 (2)
  Link C21 (1)
  Link C18 (1)
  
  
  *************************
  Routing Time Step Summary
  *************************
  Minimum Time Step           :     0.05 sec
  Average Time Step           :    28.85 sec
  Maximum Time Step           :    30.00 sec
  Percent in Steady State     :     5.07
  Average Iterations per Step :     2.01
  Percent Not Converging      :     0.00
  
  
  ***************************
  Subcatchment Runoff Summary
  ***************************
  
  ------------------------------------------------------------------------------------------------------------------------------
                            Total      Total      Total      Total     Imperv       Perv      Total       Total     Peak  Runoff
                           Precip      Runon       Evap      Infil     Runoff     Runoff     Runoff      Runoff   Runoff   Coeff
  Subcatchment                 mm         mm         mm         mm         mm         mm         mm    10^6 ltr      CMS
  ------------------------------------------------------------------------------------------------------------------------------
  SC01                       5.43       0.00       0.00       0.00       5.33       0.00       5.33        1.76     0.18   0.981
  SC010                      5.43       0.00       0.00       0.00       5.29       0.00       5.29        0.62     0.06   0.975
  SC02                       4.60       0.00       0.00       0.00       4.50       0.00       4.50        1.02     0.09   0.978
  SC03                       4.14       0.00       0.00       0.00       4.06       0.00       4.06        0.73     0.09   0.982
  SC04                       4.60       0.00       0.00       0.00       4.40       0.00       4.40        0.30     0.02   0.956
  SC05                       5.43       0.00       0.00       0.00       5.32       0.00       5.32        0.83     0.08   0.979
  SC06                       6.08       0.00       0.00       0.00       5.79       0.00       5.79        1.89     0.14   0.953
  SC07                       4.60       0.00       0.00       0.00       4.40       0.00       4.40        0.21     0.02   0.956
  SC08                       4.14       0.00       0.00       0.00       4.01       0.00       4.01        1.12     0.13   0.968
  SC09                       6.08       0.00       0.00       0.00       5.90       0.00       5.90        0.41     0.03   0.970
  
  
  ******************
  Node Depth Summary
  ******************
  
  ---------------------------------------------------------------------------------
                                 Average  Maximum  Maximum  Time of Max    Reported
                                   Depth    Depth      HGL   Occurrence   Max Depth
  Node                 Type       Meters   Meters   Meters  days hr:min      Meters
  ---------------------------------------------------------------------------------
  CSO10                JUNCTION     0.10     0.20    30.20     0  06:30        0.20
  CSO7                 JUNCTION     0.08     0.12    34.12     0  02:16        0.12
  CSO8                 JUNCTION     0.09     0.22    32.22     0  06:30        0.22
  CSO9                 JUNCTION     0.09     0.16    40.16     0  06:41        0.16
  J1                   JUNCTION     0.06     0.11    34.11     0  06:30        0.11
  J10                  JUNCTION     0.07     0.15    29.15     0  06:32        0.15
  J11                  JUNCTION     0.08     0.16    31.16     0  06:33        0.16
  J12                  JUNCTION     0.12     0.18    26.18     0  06:36        0.18
  J13                  JUNCTION     0.05     0.09    29.09     0  06:21        0.09
  J14                  JUNCTION     0.11     0.13    20.13     0  10:57        0.13
  J15                  JUNCTION     0.15     0.21    15.21     0  06:33        0.21
  J16                  JUNCTION     0.06     0.11    30.11     0  06:26        0.11
  J17                  JUNCTION     0.05     0.06    20.06     0  09:51        0.06
  J18                  JUNCTION     0.05     0.09    29.09     0  06:31        0.09
  J19                  JUNCTION     0.14     0.16     8.16     0  07:25        0.16
  J2                   JUNCTION     0.06     0.07    25.07     0  07:29        0.07
  J3                   JUNCTION     0.10     0.12    18.12     0  10:09        0.12
  J4                   JUNCTION     0.10     0.14    33.14     0  02:20        0.14
  J5                   JUNCTION     0.05     0.08    32.08     0  06:32        0.08
  J6                   JUNCTION     0.05     0.06    25.06     0  09:27        0.06
  J7                   JUNCTION     0.07     0.12    39.12     0  06:46        0.12
  J8                   JUNCTION     0.10     0.15    36.15     0  06:46        0.15
  J9                   JUNCTION     0.09     0.11    29.11     0  08:12        0.11
  Out_to_WWTP          OUTFALL      0.13     0.16     6.16     0  07:25        0.16
  T1                   STORAGE      2.39     3.95    13.95     0  07:24        3.95
  T2                   STORAGE      1.53     2.30    23.30     0  09:48        2.30
  T3                   STORAGE      1.62     2.75    24.75     0  10:40        2.75
  T4                   STORAGE      1.65     2.45    29.45     0  09:25        2.45
  T5                   STORAGE      2.13     3.18    30.18     0  07:27        3.18
  T6                   STORAGE      3.23     5.00    36.00     0  07:25        5.00
  
  
  *******************
  Node Inflow Summary
  *******************
  
  -------------------------------------------------------------------------------------------------
                                  Maximum  Maximum                  Lateral       Total        Flow
                                  Lateral    Total  Time of Max      Inflow      Inflow     Balance
                                   Inflow   Inflow   Occurrence      Volume      Volume       Error
  Node                 Type           CMS      CMS  days hr:min    10^6 ltr    10^6 ltr     Percent
  -------------------------------------------------------------------------------------------------
  CSO10                JUNCTION     0.063    0.063     0  06:30       0.794       0.795       0.007
  CSO7                 JUNCTION     0.025    0.025     0  02:15       0.569       0.569       0.026
  CSO8                 JUNCTION     0.136    0.136     0  06:30         1.4         1.4       0.025
  CSO9                 JUNCTION     0.039    0.039     0  06:40        0.65       0.652      -0.005
  J1                   JUNCTION     0.097    0.097     0  06:30        1.53        1.53      -0.110
  J10                  JUNCTION     0.099    0.232     0  06:30        1.21        2.61      -0.076
  J11                  JUNCTION     0.000    0.136     0  06:30           0         1.4      -0.047
  J12                  JUNCTION     0.000    0.296     0  06:33           0        5.14       0.314
  J13                  JUNCTION     0.105    0.105     0  06:20         1.6         1.6      -0.320
  J14                  JUNCTION     0.000    0.091     0  10:41           0        2.87       0.210
  J15                  JUNCTION     0.000    0.393     0  06:30           0        8.61       0.690
  J16                  JUNCTION     0.193    0.193     0  06:25        2.44        2.45      -0.085
  J17                  JUNCTION     0.000    0.022     0  09:49           0       0.774       0.604
  J18                  JUNCTION     0.000    0.063     0  06:30           0       0.795      -0.114
  J19                  JUNCTION     0.000    0.240     0  07:24           0        7.76       0.126
  J2                   JUNCTION     0.000    0.031     0  07:27           0        1.09       0.371
  J3                   JUNCTION     0.000    0.141     0  10:06           0        4.63       0.665
  J4                   JUNCTION     0.000    0.025     0  02:16           0       0.569       0.196
  J5                   JUNCTION     0.027    0.050     0  06:30       0.461        1.03      -0.077
  J6                   JUNCTION     0.000    0.020     0  09:25           0       0.681       0.429
  J7                   JUNCTION     0.000    0.039     0  06:41           0       0.652       0.049
  J8                   JUNCTION     0.166    0.204     0  06:45        3.05        3.71      -0.105
  J9                   JUNCTION     0.000    0.075     0  07:25           0        2.54       0.635
  Out_to_WWTP          OUTFALL      0.000    0.240     0  07:25           0        7.75       0.000
  T1                   STORAGE      0.000    0.390     0  06:33           0        8.55       5.118
  T2                   STORAGE      0.000    0.105     0  06:21           0        1.61      36.429
  T3                   STORAGE      0.000    0.294     0  06:36           0        5.13      20.315
  T4                   STORAGE      0.000    0.050     0  06:33           0        1.03      17.719
  T5                   STORAGE      0.000    0.097     0  06:30           0        1.53      16.749
  T6                   STORAGE      0.000    0.204     0  06:46           0        3.72      20.990
  
  
  **********************
  Node Surcharge Summary
  **********************
  
  No nodes were surcharged.
  
  
  *********************
  Node Flooding Summary
  *********************
  
  Flooding refers to all water that overflows a node, whether it ponds or not.
  --------------------------------------------------------------------------
                                                             Total   Maximum
                                 Maximum   Time of Max       Flood    Ponded
                        Hours       Rate    Occurrence      Volume     Depth
  Node                 Flooded       CMS   days hr:min    10^6 ltr    Meters
  --------------------------------------------------------------------------
  T6                      1.20     0.053      0  07:25       0.075     0.000
  
  
  **********************
  Storage Volume Summary
  **********************
  
  --------------------------------------------------------------------------------------------------
                         Average     Avg  Evap Exfil       Maximum     Max    Time of Max    Maximum
                          Volume    Pcnt  Pcnt  Pcnt        Volume    Pcnt     Occurrence    Outflow
  Storage Unit           1000 m3    Full  Loss  Loss       1000 m3    Full    days hr:min        CMS
  --------------------------------------------------------------------------------------------------
  T1                       0.334      48     0     0         0.553      79       0  07:24      0.240
  T2                       0.306      31     0     0         0.459      46       0  09:48      0.022
  T3                       0.845      32     0     0         1.430      55       0  10:40      0.091
  T4                       0.165      33     0     0         0.245      49       0  09:25      0.020
  T5                       0.213      43     0     0         0.318      64       0  07:27      0.031
  T6                       0.388      65     0     0         0.600     100       0  07:25      0.075
  
  
  ***********************
  Outfall Loading Summary
  ***********************
  
  -----------------------------------------------------------
                         Flow       Avg       Max       Total
                         Freq      Flow      Flow      Volume
  Outfall Node           Pcnt       CMS       CMS    10^6 ltr
  -----------------------------------------------------------
  Out_to_WWTP           99.41     0.176     0.240       7.753
  -----------------------------------------------------------
  System                99.41     0.176     0.240       7.753
  
  
  ********************
  Link Flow Summary
  ********************
  
  -----------------------------------------------------------------------------
                                 Maximum  Time of Max   Maximum    Max/    Max/
                                  |Flow|   Occurrence   |Veloc|    Full    Full
  Link                 Type          CMS  days hr:min     m/sec    Flow   Depth
  -----------------------------------------------------------------------------
  C1                   CONDUIT     0.031     0  07:29      0.95    0.01    0.09
  C10                  CONDUIT     0.204     0  06:46      1.75    0.02    0.55
  C11                  CONDUIT     0.141     0  10:09      1.58    0.01    0.08
  C12                  CONDUIT     0.075     0  08:12      1.13    0.01    0.07
  C13                  CONDUIT     0.294     0  06:36      1.49    0.02    0.54
  C14                  CONDUIT     0.240     0  07:25      2.01    0.01    0.08
  C15                  CONDUIT     0.136     0  06:30      2.15    0.43    0.41
  C16                  CONDUIT     0.134     0  06:33      1.19    0.01    0.08
  C17                  CONDUIT     0.231     0  06:32      1.86    0.01    0.08
  C18                  CONDUIT     0.105     0  06:21      4.80    0.00    0.52
  C19                  CONDUIT     0.022     0  09:51      0.51    0.01    0.14
  C2                   CONDUIT     0.020     0  09:28      0.73    0.02    0.15
  C20                  CONDUIT     0.193     0  06:26      3.28    0.01    0.08
  C21                  CONDUIT     0.063     0  06:30      1.43    0.36    0.33
  C22                  CONDUIT     0.063     0  06:31      0.94    0.03    0.19
  C23                  CONDUIT     0.390     0  06:33      1.31    0.04    0.57
  C3                   CONDUIT     0.091     0  10:41      1.63    0.04    0.12
  C4                   CONDUIT     0.097     0  06:30      3.15    0.02    0.55
  C5                   CONDUIT     0.025     0  02:16      1.30    0.42    0.50
  C6                   CONDUIT     0.024     0  02:20      1.07    0.39    0.36
  C7                   CONDUIT     0.050     0  06:33      1.52    0.01    0.54
  C8                   CONDUIT     0.039     0  06:41      1.13    0.49    0.45
  C9                   CONDUIT     0.038     0  06:46      0.88    0.13    0.27
  V1                   ORIFICE     0.240     0  07:24                      1.00
  V2                   ORIFICE     0.022     0  09:49                      0.24
  V3                   ORIFICE     0.091     0  10:41                      0.65
  V4                   ORIFICE     0.020     0  09:25                      0.35
  V5                   ORIFICE     0.031     0  07:27                      1.00
  V6                   ORIFICE     0.075     0  07:25                      0.43
  
  
  ***************************
  Flow Classification Summary
  ***************************
  
  -------------------------------------------------------------------------------------
                      Adjusted    ---------- Fraction of Time in Flow Class ---------- 
                       /Actual         Up    Down  Sub   Sup   Up    Down  Norm  Inlet 
  Conduit               Length    Dry  Dry   Dry   Crit  Crit  Crit  Crit  Ltd   Ctrl  
  -------------------------------------------------------------------------------------
  C1                      1.00   0.00  0.00  0.00  0.12  0.88  0.00  0.00  0.97  0.00
  C10                     1.00   0.00  0.00  0.00  0.98  0.02  0.00  0.00  0.99  0.00
  C11                     1.00   0.00  0.00  0.00  0.20  0.80  0.00  0.00  1.00  0.00
  C12                     1.00   0.00  0.00  0.00  0.43  0.56  0.00  0.00  0.84  0.00
  C13                     1.00   0.00  0.00  0.00  0.92  0.08  0.00  0.00  0.94  0.00
  C14                     1.00   0.00  0.00  0.00  0.01  0.99  0.00  0.00  0.52  0.00
  C15                     1.00   0.00  0.00  0.00  0.00  1.00  0.00  0.00  0.00  0.00
  C16                     1.00   0.00  0.00  0.00  0.55  0.45  0.00  0.00  0.52  0.00
  C17                     1.00   0.00  0.00  0.00  0.29  0.71  0.00  0.00  0.98  0.00
  C18                     1.00   0.00  0.00  0.00  0.96  0.04  0.00  0.00  0.98  0.00
  C19                     1.00   0.00  0.00  0.00  1.00  0.00  0.00  0.00  1.00  0.00
  C2                      1.00   0.00  0.00  0.00  0.79  0.20  0.00  0.00  0.98  0.00
  C20                     1.00   0.00  0.00  0.00  0.56  0.44  0.00  0.00  0.99  0.00
  C21                     1.00   0.00  0.00  0.00  0.00  1.00  0.00  0.00  0.00  0.00
  C22                     1.00   0.00  0.00  0.00  0.98  0.01  0.00  0.00  1.00  0.00
  C23                     1.00   0.00  0.00  0.00  0.94  0.06  0.00  0.00  0.97  0.00
  C3                      1.00   0.00  0.00  0.00  0.03  0.97  0.00  0.00  0.13  0.00
  C4                      1.00   0.00  0.00  0.00  0.98  0.02  0.00  0.00  0.99  0.00
  C5                      1.00   0.00  0.00  0.00  0.94  0.06  0.00  0.00  0.99  0.00
  C6                      1.00   0.00  0.00  0.00  0.01  0.99  0.00  0.00  0.00  0.00
  C7                      1.00   0.00  0.00  0.00  0.97  0.03  0.00  0.00  0.98  0.00
  C8                      1.00   0.00  0.00  0.00  0.08  0.92  0.00  0.00  0.00  0.00
  C9                      1.00   0.00  0.00  0.00  1.00  0.00  0.00  0.00  1.00  0.00
  
  
  *************************
  Conduit Surcharge Summary
  *************************
  
  ----------------------------------------------------------------------------
                                                           Hours        Hours 
                         --------- Hours Full --------   Above Full   Capacity
  Conduit                Both Ends  Upstream  Dnstream   Normal Flow   Limited
  ----------------------------------------------------------------------------
  C10                         0.01      0.01      9.96      0.01         0.01
  C13                         0.01      0.01      5.64      0.01         0.01
  C18                         0.01      0.01      5.57      0.01         0.01
  C23                         0.01      0.01     10.07      0.01         0.01
  C4                          0.01      0.01     10.45      0.01         0.01
  C7                          0.01      0.01      9.79      0.01         0.01
  

  Analysis begun on:  Sun Jul 17 20:28:23 2022
  Analysis ended on:  Sun Jul 17 20:28:23 2022
  Total elapsed time: < 1 sec