
  EPA STORM WATER MANAGEMENT MODEL - VERSION 5.1 (Build 5.3.0.dev0)
  --------------------------------------------------------------

  
  *********************************************************
  NOTE: The summary statistics displayed in this report are
  based on results found at every computational time step,  
  not just on results from each reporting time step.
  *********************************************************
  
  ****************
  Analysis Options
  ****************
  Flow Units ............... CMS
  Process Models:
    Rainfall/Runoff ........ YES
    RDII ................... NO
    Snowmelt ............... NO
    Groundwater ............ NO
    Flow Routing ........... YES
    Ponding Allowed ........ NO
    Water Quality .......... NO
  Infiltration Method ...... HORTON
  Flow Routing Method ...... DYNWAVE
  Surcharge Method ......... EXTRAN
  Starting Date ............ 09/22/2008 07:15:00
  Ending Date .............. 09/22/2008 23:15:00
  Antecedent Dry Days ...... 0.0
  Report Time Step ......... 00:05:00
  Wet Time Step ............ 00:05:00
  Dry Time Step ............ 01:00:00
  Routing Time Step ........ 30.00 sec
  Variable Time Step ....... YES
  Maximum Trials ........... 8
  Number of Threads ........ 1
  Head Tolerance ........... 0.001500 m
  
  
  **************************        Volume         Depth
  Runoff Quantity Continuity     hectare-m            mm
  **************************     ---------       -------
  Total Precipitation ......         1.970        10.933
  Evaporation Loss .........         0.000         0.000
  Infiltration Loss ........         0.000         0.000
  Surface Runoff ...........         1.968        10.922
  Final Storage ............         0.019         0.107
  Continuity Error (%) .....        -0.879
  
  
  **************************        Volume        Volume
  Flow Routing Continuity        hectare-m      10^6 ltr
  **************************     ---------     ---------
  Dry Weather Inflow .......         0.637         6.367
  Wet Weather Inflow .......         1.968        19.677
  Groundwater Inflow .......         0.000         0.000
  RDII Inflow ..............         0.000         0.000
  External Inflow ..........         0.000         0.000
  External Outflow .........         1.259        12.589
  Flooding Loss ............         0.499         4.986
  Evaporation Loss .........         0.000         0.000
  Exfiltration Loss ........         0.000         0.000
  Initial Stored Volume ....         0.000         0.000
  Final Stored Volume ......         0.657         6.567
  Continuity Error (%) .....         7.302
  
  
  *************************
  Highest Continuity Errors
  *************************
  Node T2 (33.91%)
  Node T4 (19.30%)
  Node T6 (13.14%)
  Node T3 (11.84%)
  Node T5 (8.15%)
  
  
  ***************************
  Time-Step Critical Elements
  ***************************
  Link C15 (25.95%)
  Link C21 (1.60%)
  
  
  ********************************
  Highest Flow Instability Indexes
  ********************************
  Link C13 (12)
  Link C21 (2)
  Link C23 (1)
  Link C3 (1)
  Link C11 (1)
  
  
  *************************
  Routing Time Step Summary
  *************************
  Minimum Time Step           :     0.54 sec
  Average Time Step           :    26.90 sec
  Maximum Time Step           :    30.00 sec
  Percent in Steady State     :     7.86
  Average Iterations per Step :     2.40
  Percent Not Converging      :     1.88
  
  
  ***************************
  Subcatchment Runoff Summary
  ***************************
  
  ------------------------------------------------------------------------------------------------------------------------------
                            Total      Total      Total      Total     Imperv       Perv      Total       Total     Peak  Runoff
                           Precip      Runon       Evap      Infil     Runoff     Runoff     Runoff      Runoff   Runoff   Coeff
  Subcatchment                 mm         mm         mm         mm         mm         mm         mm    10^6 ltr      CMS
  ------------------------------------------------------------------------------------------------------------------------------
  SC01                       7.50       0.00       0.00       0.00       7.45       0.00       7.45        2.46     0.60   0.994
  SC010                      7.50       0.00       0.00       0.00       7.43       0.00       7.43        0.87     0.20   0.991
  SC02                       9.55       0.00       0.00       0.00       9.49       0.00       9.49        2.16     0.64   0.993
  SC03                      15.41       0.00       0.00       0.00      15.70       0.00      15.70        2.83     2.30   1.019
  SC04                       9.55       0.00       0.00       0.00       9.43       0.00       9.43        0.65     0.16   0.987
  SC05                       7.50       0.00       0.00       0.00       7.45       0.00       7.45        1.16     0.28   0.993
  SC06                      12.17       0.00       0.00       0.00      12.06       0.00      12.06        3.93     1.11   0.991
  SC07                       9.55       0.00       0.00       0.00       9.43       0.00       9.43        0.45     0.11   0.987
  SC08                      15.41       0.00       0.00       0.00      15.51       0.00      15.51        4.34     2.82   1.006
  SC09                      12.17       0.00       0.00       0.00      12.12       0.00      12.12        0.84     0.27   0.996
  
  
  ******************
  Node Depth Summary
  ******************
  
  ---------------------------------------------------------------------------------
                                 Average  Maximum  Maximum  Time of Max    Reported
                                   Depth    Depth      HGL   Occurrence   Max Depth
  Node                 Type       Meters   Meters   Meters  days hr:min      Meters
  ---------------------------------------------------------------------------------
  CSO10                JUNCTION     0.12     1.00    31.00     0  02:04        1.00
  CSO7                 JUNCTION     0.19     1.20    35.20     0  01:37        1.20
  CSO8                 JUNCTION     0.28     2.00    34.00     0  01:36        2.00
  CSO9                 JUNCTION     0.27     2.00    42.00     0  01:42        2.00
  J1                   JUNCTION     0.07     0.18    34.18     0  02:05        0.18
  J10                  JUNCTION     0.10     0.50    29.50     0  01:45        0.50
  J11                  JUNCTION     0.10     0.30    31.30     0  02:05        0.30
  J12                  JUNCTION     0.63     1.00    27.00     0  04:30        1.00
  J13                  JUNCTION     0.06     0.21    29.21     0  01:46        0.21
  J14                  JUNCTION     0.13     0.19    20.19     0  07:17        0.19
  J15                  JUNCTION     0.17     0.33    15.33     0  02:07        0.33
  J16                  JUNCTION     0.06     0.19    30.19     0  02:05        0.19
  J17                  JUNCTION     0.05     0.15    20.15     0  03:45        0.15
  J18                  JUNCTION     0.05     0.16    29.16     0  02:06        0.16
  J19                  JUNCTION     0.15     0.17     8.17     0  02:08        0.17
  J2                   JUNCTION     0.07     0.08    25.08     0  03:07        0.08
  J3                   JUNCTION     0.12     0.16    18.16     0  07:21        0.15
  J4                   JUNCTION     0.16     1.06    34.06     0  01:37        0.74
  J5                   JUNCTION     0.06     0.16    32.16     0  01:50        0.16
  J6                   JUNCTION     0.06     0.12    25.12     0  03:45        0.12
  J7                   JUNCTION     0.08     0.23    39.23     0  02:25        0.23
  J8                   JUNCTION     0.11     0.37    36.37     0  02:10        0.37
  J9                   JUNCTION     0.09     0.16    29.16     0  03:21        0.16
  Out_to_WWTP          OUTFALL      0.15     0.17     6.17     0  02:57        0.17
  T1                   STORAGE      3.59     5.00    15.00     0  02:06        5.00
  T2                   STORAGE      4.24     5.00    26.00     0  06:51        5.00
  T3                   STORAGE      4.05     5.00    27.00     0  03:49        5.00
  T4                   STORAGE      3.99     4.85    31.85     0  06:25        4.85
  T5                   STORAGE      3.17     4.51    31.51     0  03:05        4.51
  T6                   STORAGE      4.21     5.00    36.00     0  02:06        5.00
  
  
  *******************
  Node Inflow Summary
  *******************
  
  -------------------------------------------------------------------------------------------------
                                  Maximum  Maximum                  Lateral       Total        Flow
                                  Lateral    Total  Time of Max      Inflow      Inflow     Balance
                                   Inflow   Inflow   Occurrence      Volume      Volume       Error
  Node                 Type           CMS      CMS  days hr:min    10^6 ltr    10^6 ltr     Percent
  -------------------------------------------------------------------------------------------------
  CSO10                JUNCTION     0.207    0.207     0  02:05         1.1         1.1      -0.127
  CSO7                 JUNCTION     0.120    0.120     0  01:50        0.92       0.922      -0.148
  CSO8                 JUNCTION     2.835    2.835     0  01:45        4.74        4.75      -0.001
  CSO9                 JUNCTION     0.274    0.274     0  02:05        1.16        1.16      -0.091
  J1                   JUNCTION     0.299    0.299     0  02:05        2.08        2.08      -0.124
  J10                  JUNCTION     2.313    2.793     0  01:45        3.45        6.51      -0.074
  J11                  JUNCTION     0.000    0.487     0  02:05           0        3.06       0.012
  J12                  JUNCTION     0.000    2.775     0  01:45           0        9.68       4.423
  J13                  JUNCTION     0.656    0.656     0  01:45        2.91        2.93      -0.842
  J14                  JUNCTION     0.000    0.188     0  07:18           0        5.91       0.088
  J15                  JUNCTION     0.000    1.017     0  02:05           0          14      -0.354
  J16                  JUNCTION     0.621    0.621     0  02:05        3.36        3.36      -0.160
  J17                  JUNCTION     0.000    0.137     0  03:40           0       0.936      -0.660
  J18                  JUNCTION     0.000    0.202     0  02:05           0         1.1       0.051
  J19                  JUNCTION     0.000    0.271     0  02:06           0        12.6       0.073
  J2                   JUNCTION     0.000    0.037     0  03:05           0        1.73       0.210
  J3                   JUNCTION     0.000    0.253     0  07:18           0        8.61       0.054
  J4                   JUNCTION     0.000    0.081     0  01:37           0       0.859      -0.144
  J5                   JUNCTION     0.164    0.236     0  01:50       0.857        1.72      -0.350
  J6                   JUNCTION     0.000    0.077     0  03:40           0       0.973      -0.545
  J7                   JUNCTION     0.000    0.127     0  02:25           0        0.91      -0.139
  J8                   JUNCTION     1.137    1.265     0  02:10        5.46        6.38      -0.366
  J9                   JUNCTION     0.000    0.175     0  02:25           0           3      -4.503
  Out_to_WWTP          OUTFALL      0.000    0.271     0  02:08           0        12.6       0.000
  T1                   STORAGE      0.000    0.961     0  02:07           0        14.1       2.355
  T2                   STORAGE      0.000    0.654     0  01:46           0        2.95      51.306
  T3                   STORAGE      0.000    2.692     0  01:46           0        9.27      13.427
  T4                   STORAGE      0.000    0.235     0  01:50           0        1.73      23.915
  T5                   STORAGE      0.000    0.294     0  02:05           0        2.08       8.878
  T6                   STORAGE      0.000    1.264     0  02:10           0        6.41      15.134
  
  
  **********************
  Node Surcharge Summary
  **********************
  
  Surcharging occurs when water rises above the top of the highest conduit.
  ---------------------------------------------------------------------
                                               Max. Height   Min. Depth
                                   Hours       Above Crown    Below Rim
  Node                 Type      Surcharged         Meters       Meters
  ---------------------------------------------------------------------
  CSO10                JUNCTION        0.30          0.560        0.000
  CSO7                 JUNCTION        0.85          0.945        0.000
  CSO8                 JUNCTION        0.88          1.547        0.000
  CSO9                 JUNCTION        0.95          1.682        0.000
  J4                   JUNCTION        0.82          0.759        0.941
  
  
  *********************
  Node Flooding Summary
  *********************
  
  Flooding refers to all water that overflows a node, whether it ponds or not.
  --------------------------------------------------------------------------
                                                             Total   Maximum
                                 Maximum   Time of Max       Flood    Ponded
                        Hours       Rate    Occurrence      Volume     Depth
  Node                 Flooded       CMS   days hr:min    10^6 ltr    Meters
  --------------------------------------------------------------------------
  CSO10                   0.02     0.005      0  02:05       0.000     0.000
  CSO7                    0.68     0.048      0  01:50       0.064     0.000
  CSO8                    0.66     2.333      0  01:45       1.686     0.000
  CSO9                    0.72     0.147      0  01:50       0.249     0.000
  T1                      1.53     0.691      0  02:08       0.879     0.000
  T2                      3.35     0.016      0  07:16       0.057     0.000
  T3                      0.35     0.184      0  04:38       0.034     0.000
  T6                      1.26     1.234      0  02:10       2.012     0.000
  
  
  **********************
  Storage Volume Summary
  **********************
  
  --------------------------------------------------------------------------------------------------
                         Average     Avg  Evap Exfil       Maximum     Max    Time of Max    Maximum
                          Volume    Pcnt  Pcnt  Pcnt        Volume    Pcnt     Occurrence    Outflow
  Storage Unit           1000 m3    Full  Loss  Loss       1000 m3    Full    days hr:min        CMS
  --------------------------------------------------------------------------------------------------
  T1                       0.502      72     0     0         0.700     100       0  02:06      0.271
  T2                       0.848      85     0     0         1.000     100       0  06:51      0.137
  T3                       2.107      81     0     0         2.600     100       0  03:49      0.188
  T4                       0.399      80     0     0         0.485      97       0  06:25      0.077
  T5                       0.317      63     0     0         0.451      90       0  03:05      0.037
  T6                       0.505      84     0     0         0.600     100       0  02:06      0.175
  
  
  ***********************
  Outfall Loading Summary
  ***********************
  
  -----------------------------------------------------------
                         Flow       Avg       Max       Total
                         Freq      Flow      Flow      Volume
  Outfall Node           Pcnt       CMS       CMS    10^6 ltr
  -----------------------------------------------------------
  Out_to_WWTP           99.48     0.221     0.271      12.589
  -----------------------------------------------------------
  System                99.48     0.221     0.271      12.589
  
  
  ********************
  Link Flow Summary
  ********************
  
  -----------------------------------------------------------------------------
                                 Maximum  Time of Max   Maximum    Max/    Max/
                                  |Flow|   Occurrence   |Veloc|    Full    Full
  Link                 Type          CMS  days hr:min     m/sec    Flow   Depth
  -----------------------------------------------------------------------------
  C1                   CONDUIT     0.037     0  03:07      1.00    0.01    0.11
  C10                  CONDUIT     1.264     0  02:10      1.66    0.13    0.62
  C11                  CONDUIT     0.247     0  07:21      1.91    0.01    0.12
  C12                  CONDUIT     0.175     0  03:21      0.95    0.01    0.29
  C13                  CONDUIT     2.692     0  01:46      3.29    0.16    0.75
  C14                  CONDUIT     0.271     0  02:08      2.08    0.02    0.09
  C15                  CONDUIT     0.487     0  02:05      3.79    1.55    0.83
  C16                  CONDUIT     0.489     0  02:10      1.80    0.05    0.20
  C17                  CONDUIT     2.744     0  01:45      4.49    0.14    0.27
  C18                  CONDUIT     0.654     0  01:46      3.36    0.02    0.55
  C19                  CONDUIT     0.135     0  03:45      1.48    0.05    0.22
  C2                   CONDUIT     0.076     0  03:45      1.62    0.09    0.22
  C20                  CONDUIT     0.609     0  02:05      2.99    0.02    0.13
  C21                  CONDUIT     0.202     0  02:05      1.83    1.16    0.68
  C22                  CONDUIT     0.197     0  02:06      1.57    0.09    0.31
  C23                  CONDUIT     0.961     0  02:07      1.27    0.11    0.61
  C3                   CONDUIT     0.190     0  07:18      2.17    0.07    0.17
  C4                   CONDUIT     0.294     0  02:05      3.06    0.07    0.59
  C5                   CONDUIT     0.081     0  01:37      1.57    1.38    1.00
  C6                   CONDUIT     0.072     0  01:50      1.29    1.14    0.77
  C7                   CONDUIT     0.235     0  01:50      1.44    0.06    0.58
  C8                   CONDUIT     0.127     0  02:25      1.88    1.60    0.86
  C9                   CONDUIT     0.127     0  02:26      1.23    0.43    0.60
  V1                   ORIFICE     0.271     0  02:06                      1.00
  V2                   ORIFICE     0.137     0  03:40                      1.00
  V3                   ORIFICE     0.188     0  07:18                      1.00
  V4                   ORIFICE     0.077     0  03:40                      1.00
  V5                   ORIFICE     0.037     0  03:05                      1.00
  V6                   ORIFICE     0.175     0  02:25                      1.00
  
  
  ***************************
  Flow Classification Summary
  ***************************
  
  -------------------------------------------------------------------------------------
                      Adjusted    ---------- Fraction of Time in Flow Class ---------- 
                       /Actual         Up    Down  Sub   Sup   Up    Down  Norm  Inlet 
  Conduit               Length    Dry  Dry   Dry   Crit  Crit  Crit  Crit  Ltd   Ctrl  
  -------------------------------------------------------------------------------------
  C1                      1.00   0.00  0.00  0.00  0.63  0.37  0.00  0.00  0.98  0.00
  C10                     1.00   0.00  0.00  0.00  0.98  0.02  0.00  0.00  0.99  0.00
  C11                     1.00   0.00  0.00  0.00  0.18  0.82  0.00  0.00  1.00  0.00
  C12                     1.00   0.00  0.00  0.00  0.99  0.01  0.00  0.00  1.00  0.00
  C13                     1.00   0.00  0.00  0.00  0.90  0.10  0.00  0.00  0.10  0.00
  C14                     1.00   0.00  0.00  0.00  0.00  0.99  0.00  0.00  0.49  0.00
  C15                     1.00   0.00  0.00  0.00  0.00  1.00  0.00  0.00  0.00  0.00
  C16                     1.00   0.00  0.00  0.00  0.54  0.46  0.00  0.00  0.53  0.00
  C17                     1.00   0.00  0.00  0.00  0.79  0.21  0.00  0.00  0.98  0.00
  C18                     1.00   0.00  0.00  0.00  0.93  0.07  0.00  0.00  0.98  0.00
  C19                     1.00   0.00  0.00  0.00  0.99  0.00  0.00  0.00  1.00  0.00
  C2                      1.00   0.00  0.00  0.00  0.85  0.15  0.00  0.00  0.98  0.00
  C20                     1.00   0.00  0.00  0.00  0.76  0.24  0.00  0.00  0.99  0.00
  C21                     1.00   0.00  0.00  0.00  0.02  0.98  0.00  0.00  0.00  0.00
  C22                     1.00   0.00  0.00  0.00  0.86  0.14  0.00  0.00  1.00  0.00
  C23                     1.00   0.00  0.00  0.00  0.95  0.05  0.00  0.00  0.97  0.00
  C3                      1.00   0.00  0.00  0.00  0.03  0.97  0.00  0.00  0.16  0.00
  C4                      1.00   0.00  0.00  0.00  0.98  0.02  0.00  0.00  0.99  0.00
  C5                      1.00   0.00  0.00  0.00  0.96  0.04  0.00  0.00  0.93  0.00
  C6                      1.00   0.00  0.00  0.00  0.12  0.88  0.00  0.00  0.00  0.00
  C7                      1.00   0.00  0.00  0.00  0.96  0.04  0.00  0.00  0.98  0.00
  C8                      1.00   0.00  0.00  0.00  0.19  0.81  0.00  0.00  0.01  0.00
  C9                      1.00   0.00  0.00  0.00  1.00  0.00  0.00  0.00  1.00  0.00
  
  
  *************************
  Conduit Surcharge Summary
  *************************
  
  ----------------------------------------------------------------------------
                                                           Hours        Hours 
                         --------- Hours Full --------   Above Full   Capacity
  Conduit                Both Ends  Upstream  Dnstream   Normal Flow   Limited
  ----------------------------------------------------------------------------
  C10                         0.01      0.01     14.16      0.01         0.01
  C13                         0.01      0.01     14.15      0.01         0.01
  C15                         0.01      0.88      0.01      0.89         0.01
  C18                         0.01      0.01     14.21      0.01         0.01
  C21                         0.01      0.30      0.01      0.24         0.01
  C23                         0.01      0.01     14.46      0.01         0.01
  C4                          0.01      0.01     14.61      0.01         0.01
  C5                          0.82      0.85      0.92      0.88         0.79
  C6                          0.01      0.82      0.01      0.73         0.01
  C7                          0.01      0.01     14.32      0.01         0.01
  C8                          0.01      0.95      0.01      0.95         0.01
  

  Analysis begun on:  Sun Jul 17 21:01:36 2022
  Analysis ended on:  Sun Jul 17 21:01:38 2022
  Total elapsed time: 00:00:02