
  EPA STORM WATER MANAGEMENT MODEL - VERSION 5.1 (Build 5.3.0.dev0)
  --------------------------------------------------------------

  
  *********************************************************
  NOTE: The summary statistics displayed in this report are
  based on results found at every computational time step,  
  not just on results from each reporting time step.
  *********************************************************
  
  ****************
  Analysis Options
  ****************
  Flow Units ............... CMS
  Process Models:
    Rainfall/Runoff ........ YES
    RDII ................... NO
    Snowmelt ............... NO
    Groundwater ............ NO
    Flow Routing ........... YES
    Ponding Allowed ........ NO
    Water Quality .......... NO
  Infiltration Method ...... HORTON
  Flow Routing Method ...... DYNWAVE
  Surcharge Method ......... EXTRAN
  Starting Date ............ 04/30/2009 19:05:00
  Ending Date .............. 05/01/2009 10:55:00
  Antecedent Dry Days ...... 0.0
  Report Time Step ......... 00:05:00
  Wet Time Step ............ 00:05:00
  Dry Time Step ............ 01:00:00
  Routing Time Step ........ 30.00 sec
  Variable Time Step ....... YES
  Maximum Trials ........... 8
  Number of Threads ........ 1
  Head Tolerance ........... 0.001500 m
  
  
  **************************        Volume         Depth
  Runoff Quantity Continuity     hectare-m            mm
  **************************     ---------       -------
  Total Precipitation ......         2.615        14.512
  Evaporation Loss .........         0.000         0.000
  Infiltration Loss ........         0.000         0.000
  Surface Runoff ...........         2.589        14.369
  Final Storage ............         0.027         0.149
  Continuity Error (%) .....        -0.044
  
  
  **************************        Volume        Volume
  Flow Routing Continuity        hectare-m      10^6 ltr
  **************************     ---------     ---------
  Dry Weather Inflow .......         0.384         3.836
  Wet Weather Inflow .......         2.589        25.890
  Groundwater Inflow .......         0.000         0.000
  RDII Inflow ..............         0.000         0.000
  External Inflow ..........         0.000         0.000
  External Outflow .........         1.219        12.188
  Flooding Loss ............         0.722         7.222
  Evaporation Loss .........         0.000         0.000
  Exfiltration Loss ........         0.000         0.000
  Initial Stored Volume ....         0.000         0.000
  Final Stored Volume ......         0.776         7.760
  Continuity Error (%) .....         8.598
  
  
  *************************
  Highest Continuity Errors
  *************************
  Node T2 (28.72%)
  Node T5 (13.92%)
  Node T6 (13.05%)
  Node T3 (11.39%)
  Node T4 (8.59%)
  
  
  ***************************
  Time-Step Critical Elements
  ***************************
  Link C15 (65.09%)
  
  
  ********************************
  Highest Flow Instability Indexes
  ********************************
  Link C13 (6)
  Link C18 (2)
  Link C20 (2)
  Link C23 (2)
  Link C15 (2)
  
  
  *************************
  Routing Time Step Summary
  *************************
  Minimum Time Step           :     0.01 sec
  Average Time Step           :    26.18 sec
  Maximum Time Step           :    30.00 sec
  Percent in Steady State     :    16.18
  Average Iterations per Step :     2.01
  Percent Not Converging      :     0.00
  
  
  ***************************
  Subcatchment Runoff Summary
  ***************************
  
  ------------------------------------------------------------------------------------------------------------------------------
                            Total      Total      Total      Total     Imperv       Perv      Total       Total     Peak  Runoff
                           Precip      Runon       Evap      Infil     Runoff     Runoff     Runoff      Runoff   Runoff   Coeff
  Subcatchment                 mm         mm         mm         mm         mm         mm         mm    10^6 ltr      CMS
  ------------------------------------------------------------------------------------------------------------------------------
  SC01                      15.10       0.00       0.00       0.00      15.01       0.00      15.01        4.95     0.24   0.994
  SC010                     15.10       0.00       0.00       0.00      14.98       0.00      14.98        1.76     0.08   0.992
  SC02                      13.87       0.00       0.00       0.00      13.77       0.00      13.77        3.13     0.17   0.993
  SC03                      14.29       0.00       0.00       0.00      14.22       0.00      14.22        2.56     0.13   0.995
  SC04                      13.87       0.00       0.00       0.00      13.65       0.00      13.65        0.94     0.05   0.984
  SC05                      15.10       0.00       0.00       0.00      15.00       0.00      15.00        2.34     0.11   0.994
  SC06                      14.43       0.00       0.00       0.00      14.16       0.00      14.16        4.61     0.19   0.981
  SC07                      13.87       0.00       0.00       0.00      13.66       0.00      13.66        0.65     0.03   0.985
  SC08                      14.29       0.00       0.00       0.00      14.15       0.00      14.15        3.96     0.18   0.990
  SC09                      14.43       0.00       0.00       0.00      14.27       0.00      14.27        0.98     0.04   0.989
  
  
  ******************
  Node Depth Summary
  ******************
  
  ---------------------------------------------------------------------------------
                                 Average  Maximum  Maximum  Time of Max    Reported
                                   Depth    Depth      HGL   Occurrence   Max Depth
  Node                 Type       Meters   Meters   Meters  days hr:min      Meters
  ---------------------------------------------------------------------------------
  CSO10                JUNCTION     0.14     0.23    30.23     0  05:06        0.23
  CSO7                 JUNCTION     0.09     0.14    34.14     0  08:00        0.14
  CSO8                 JUNCTION     0.15     0.25    32.25     0  09:25        0.25
  CSO9                 JUNCTION     0.12     0.17    40.17     0  05:50        0.17
  J1                   JUNCTION     0.08     0.11    34.11     0  05:06        0.11
  J10                  JUNCTION     0.11     0.17    29.17     0  09:28        0.17
  J11                  JUNCTION     0.12     0.18    31.18     0  09:28        0.18
  J12                  JUNCTION     0.50     1.03    27.03     0  09:34        1.03
  J13                  JUNCTION     0.07     0.11    29.11     0  08:00        0.11
  J14                  JUNCTION     0.13     0.19    20.19     0  12:49        0.19
  J15                  JUNCTION     0.19     0.28    15.28     0  09:41        0.28
  J16                  JUNCTION     0.08     0.12    30.12     0  05:06        0.12
  J17                  JUNCTION     0.07     0.15    20.15     0  09:23        0.15
  J18                  JUNCTION     0.07     0.10    29.10     0  05:08        0.10
  J19                  JUNCTION     0.15     0.17     8.17     0  05:46        0.17
  J2                   JUNCTION     0.07     0.08    25.08     0  09:34        0.08
  J3                   JUNCTION     0.12     0.17    18.17     0  09:44        0.17
  J4                   JUNCTION     0.11     0.17    33.17     0  08:05        0.17
  J5                   JUNCTION     0.07     0.10    32.10     0  08:04        0.10
  J6                   JUNCTION     0.07     0.11    25.11     0  08:52        0.11
  J7                   JUNCTION     0.09     0.13    39.13     0  05:53        0.13
  J8                   JUNCTION     0.11     0.16    36.16     0  05:52        0.16
  J9                   JUNCTION     0.12     0.16    29.16     0  12:18        0.16
  Out_to_WWTP          OUTFALL      0.15     0.17     6.17     0  13:53        0.17
  T1                   STORAGE      3.75     5.00    15.00     0  05:44        5.00
  T2                   STORAGE      2.88     4.81    25.81     0  15:50        4.81
  T3                   STORAGE      3.23     5.00    27.00     0  09:29        5.00
  T4                   STORAGE      2.44     3.97    30.97     0  08:45        3.97
  T5                   STORAGE      3.35     5.00    32.00     0  08:43        5.00
  T6                   STORAGE      3.02     5.00    36.00     0  14:01        5.00
  
  
  *******************
  Node Inflow Summary
  *******************
  
  -------------------------------------------------------------------------------------------------
                                  Maximum  Maximum                  Lateral       Total        Flow
                                  Lateral    Total  Time of Max      Inflow      Inflow     Balance
                                   Inflow   Inflow   Occurrence      Volume      Volume       Error
  Node                 Type           CMS      CMS  days hr:min    10^6 ltr    10^6 ltr     Percent
  -------------------------------------------------------------------------------------------------
  CSO10                JUNCTION     0.079    0.079     0  05:05         1.9        1.91      -0.564
  CSO7                 JUNCTION     0.034    0.034     0  08:00       0.938       0.946      -0.375
  CSO8                 JUNCTION     0.177    0.177     0  09:25        4.14        4.16      -0.647
  CSO9                 JUNCTION     0.043    0.043     0  05:50        1.18        1.18       0.037
  J1                   JUNCTION     0.112    0.112     0  05:05         2.9        2.91      -0.609
  J10                  JUNCTION     0.130    0.301     0  09:26        2.94        7.17      -1.103
  J11                  JUNCTION     0.000    0.177     0  09:25           0        4.18      -1.364
  J12                  JUNCTION     0.000    0.465     0  09:28           0        12.4       9.168
  J13                  JUNCTION     0.174    0.174     0  08:00         3.6        3.64      -0.939
  J14                  JUNCTION     0.000    0.190     0  09:29           0        5.97       0.081
  J15                  JUNCTION     0.000    0.724     0  09:31           0        18.3      -0.270
  J16                  JUNCTION     0.238    0.238     0  05:05        5.51        5.52      -0.712
  J17                  JUNCTION     0.000    0.134     0  10:55           0        1.66      -3.274
  J18                  JUNCTION     0.000    0.079     0  05:06           0        1.92      -1.029
  J19                  JUNCTION     0.000    0.271     0  05:45           0        12.2       0.091
  J2                   JUNCTION     0.000    0.039     0  08:43           0        1.67       0.313
  J3                   JUNCTION     0.000    0.298     0  09:27           0        9.09       0.408
  J4                   JUNCTION     0.000    0.034     0  08:01           0        0.95      -0.313
  J5                   JUNCTION     0.047    0.079     0  08:03        1.07        2.03      -0.582
  J6                   JUNCTION     0.000    0.071     0  08:45           0        1.52       4.294
  J7                   JUNCTION     0.000    0.043     0  05:50           0        1.18      -0.305
  J8                   JUNCTION     0.191    0.233     0  05:50        5.55        6.73      -0.213
  J9                   JUNCTION     0.000    0.167     0  12:13           0        5.13       0.014
  Out_to_WWTP          OUTFALL      0.000    0.271     0  05:46           0        12.2       0.000
  T1                   STORAGE      0.000    0.709     0  09:41           0        18.3       3.296
  T2                   STORAGE      0.000    0.173     0  08:00           0        3.67      40.295
  T3                   STORAGE      0.000    0.649     0  09:43           0        11.3      12.854
  T4                   STORAGE      0.000    0.079     0  08:04           0        2.05       9.399
  T5                   STORAGE      0.000    0.111     0  05:06           0        2.93      16.173
  T6                   STORAGE      0.000    0.232     0  05:52           0        6.74      15.008
  
  
  **********************
  Node Surcharge Summary
  **********************
  
  No nodes were surcharged.
  
  
  *********************
  Node Flooding Summary
  *********************
  
  Flooding refers to all water that overflows a node, whether it ponds or not.
  --------------------------------------------------------------------------
                                                             Total   Maximum
                                 Maximum   Time of Max       Flood    Ponded
                        Hours       Rate    Occurrence      Volume     Depth
  Node                 Flooded       CMS   days hr:min    10^6 ltr    Meters
  --------------------------------------------------------------------------
  T1                      8.02     0.438      0  09:41       5.041     0.000
  T3                      3.14     0.458      0  09:44       1.612     0.000
  T5                      3.75     0.069      0  09:31       0.435     0.000
  T6                      1.82     0.026      0  14:01       0.133     0.000
  
  
  **********************
  Storage Volume Summary
  **********************
  
  --------------------------------------------------------------------------------------------------
                         Average     Avg  Evap Exfil       Maximum     Max    Time of Max    Maximum
                          Volume    Pcnt  Pcnt  Pcnt        Volume    Pcnt     Occurrence    Outflow
  Storage Unit           1000 m3    Full  Loss  Loss       1000 m3    Full    days hr:min        CMS
  --------------------------------------------------------------------------------------------------
  T1                       0.525      75     0     0         0.700     100       0  05:44      0.271
  T2                       0.576      58     0     0         0.961      96       0  15:50      0.134
  T3                       1.677      65     0     0         2.600     100       0  09:29      0.190
  T4                       0.244      49     0     0         0.397      79       0  08:45      0.071
  T5                       0.335      67     0     0         0.500     100       0  08:43      0.039
  T6                       0.363      60     0     0         0.600     100       0  14:01      0.167
  
  
  ***********************
  Outfall Loading Summary
  ***********************
  
  -----------------------------------------------------------
                         Flow       Avg       Max       Total
                         Freq      Flow      Flow      Volume
  Outfall Node           Pcnt       CMS       CMS    10^6 ltr
  -----------------------------------------------------------
  Out_to_WWTP           99.51     0.221     0.271      12.187
  -----------------------------------------------------------
  System                99.51     0.221     0.271      12.187
  
  
  ********************
  Link Flow Summary
  ********************
  
  -----------------------------------------------------------------------------
                                 Maximum  Time of Max   Maximum    Max/    Max/
                                  |Flow|   Occurrence   |Veloc|    Full    Full
  Link                 Type          CMS  days hr:min     m/sec    Flow   Depth
  -----------------------------------------------------------------------------
  C1                   CONDUIT     0.039     0  09:23      1.04    0.01    0.12
  C10                  CONDUIT     0.232     0  05:52      1.62    0.02    0.55
  C11                  CONDUIT     0.298     0  09:44      1.91    0.01    0.11
  C12                  CONDUIT     0.167     0  12:20      1.23    0.01    0.30
  C13                  CONDUIT     0.649     0  09:43      1.45    0.04    0.76
  C14                  CONDUIT     0.271     0  05:46      2.08    0.02    0.09
  C15                  CONDUIT     0.177     0  09:25      2.32    0.56    0.48
  C16                  CONDUIT     0.176     0  09:28      1.29    0.02    0.09
  C17                  CONDUIT     0.300     0  09:28      2.00    0.01    0.30
  C18                  CONDUIT     0.173     0  08:00      3.92    0.01    0.53
  C19                  CONDUIT     0.132     0  09:23      1.29    0.05    0.21
  C2                   CONDUIT     0.071     0  08:52      1.76    0.08    0.24
  C20                  CONDUIT     0.236     0  05:06      3.28    0.01    0.10
  C21                  CONDUIT     0.079     0  05:06      1.52    0.45    0.37
  C22                  CONDUIT     0.078     0  05:08      1.07    0.04    0.24
  C23                  CONDUIT     0.709     0  09:41      1.21    0.08    0.59
  C3                   CONDUIT     0.190     0  10:55      2.10    0.07    0.18
  C4                   CONDUIT     0.111     0  05:06      3.48    0.03    0.56
  C5                   CONDUIT     0.034     0  08:01      1.20    0.57    0.59
  C6                   CONDUIT     0.033     0  08:06      1.11    0.53    0.44
  C7                   CONDUIT     0.079     0  08:04      1.41    0.02    0.55
  C8                   CONDUIT     0.043     0  05:50      1.16    0.55    0.48
  C9                   CONDUIT     0.043     0  05:53      0.91    0.15    0.29
  V1                   ORIFICE     0.271     0  05:45                      1.00
  V2                   ORIFICE     0.134     0  10:55                      1.00
  V3                   ORIFICE     0.190     0  09:29                      1.00
  V4                   ORIFICE     0.071     0  08:45                      1.00
  V5                   ORIFICE     0.039     0  08:43                      1.00
  V6                   ORIFICE     0.167     0  12:13                      1.00
  
  
  ***************************
  Flow Classification Summary
  ***************************
  
  -------------------------------------------------------------------------------------
                      Adjusted    ---------- Fraction of Time in Flow Class ---------- 
                       /Actual         Up    Down  Sub   Sup   Up    Down  Norm  Inlet 
  Conduit               Length    Dry  Dry   Dry   Crit  Crit  Crit  Crit  Ltd   Ctrl  
  -------------------------------------------------------------------------------------
  C1                      1.00   0.00  0.00  0.00  0.62  0.38  0.00  0.00  0.97  0.00
  C10                     1.00   0.00  0.00  0.00  0.97  0.03  0.00  0.00  0.99  0.00
  C11                     1.00   0.00  0.00  0.00  0.17  0.82  0.00  0.00  1.00  0.00
  C12                     1.00   0.00  0.00  0.00  0.82  0.18  0.00  0.00  1.00  0.00
  C13                     1.00   0.00  0.00  0.00  0.94  0.06  0.00  0.00  0.46  0.00
  C14                     1.00   0.00  0.00  0.00  0.00  0.99  0.00  0.00  0.25  0.00
  C15                     1.00   0.01  0.00  0.00  0.00  0.99  0.00  0.00  0.00  0.00
  C16                     1.00   0.00  0.01  0.00  0.16  0.83  0.00  0.00  0.17  0.00
  C17                     1.00   0.00  0.00  0.00  0.52  0.48  0.00  0.00  0.99  0.00
  C18                     1.00   0.00  0.00  0.00  0.97  0.03  0.00  0.00  0.99  0.00
  C19                     1.00   0.00  0.00  0.00  0.98  0.02  0.00  0.00  1.00  0.00
  C2                      1.00   0.00  0.00  0.00  0.54  0.46  0.00  0.00  0.99  0.00
  C20                     1.00   0.00  0.00  0.00  0.32  0.68  0.00  0.00  0.99  0.00
  C21                     1.00   0.00  0.00  0.00  0.00  1.00  0.00  0.00  0.00  0.00
  C22                     1.00   0.00  0.00  0.00  0.98  0.02  0.00  0.00  1.00  0.00
  C23                     1.00   0.00  0.00  0.00  0.94  0.06  0.00  0.00  0.97  0.00
  C3                      1.00   0.00  0.00  0.00  0.02  0.97  0.00  0.00  0.32  0.00
  C4                      1.00   0.00  0.00  0.00  0.98  0.02  0.00  0.00  0.99  0.00
  C5                      1.00   0.00  0.00  0.00  0.87  0.13  0.00  0.00  0.99  0.00
  C6                      1.00   0.00  0.00  0.00  0.00  1.00  0.00  0.00  0.00  0.00
  C7                      1.00   0.00  0.00  0.00  0.97  0.03  0.00  0.00  0.98  0.00
  C8                      1.00   0.00  0.00  0.00  0.00  1.00  0.00  0.00  0.00  0.00
  C9                      1.00   0.00  0.00  0.00  1.00  0.00  0.00  0.00  1.00  0.00
  
  
  *************************
  Conduit Surcharge Summary
  *************************
  
  ----------------------------------------------------------------------------
                                                           Hours        Hours 
                         --------- Hours Full --------   Above Full   Capacity
  Conduit                Both Ends  Upstream  Dnstream   Normal Flow   Limited
  ----------------------------------------------------------------------------
  C10                         0.01      0.01     10.44      0.01         0.01
  C13                         0.01      0.01     10.40      0.01         0.01
  C18                         0.01      0.01      9.85      0.01         0.01
  C23                         0.01      0.01     12.52      0.01         0.01
  C4                          0.01      0.01     12.51      0.01         0.01
  C7                          0.01      0.01     11.01      0.01         0.01
  

  Analysis begun on:  Sun Jul 17 21:29:43 2022
  Analysis ended on:  Sun Jul 17 21:29:46 2022
  Total elapsed time: 00:00:03