
  EPA STORM WATER MANAGEMENT MODEL - VERSION 5.1 (Build 5.3.0.dev0)
  --------------------------------------------------------------

  
  *********************************************************
  NOTE: The summary statistics displayed in this report are
  based on results found at every computational time step,  
  not just on results from each reporting time step.
  *********************************************************
  
  ****************
  Analysis Options
  ****************
  Flow Units ............... CMS
  Process Models:
    Rainfall/Runoff ........ YES
    RDII ................... NO
    Snowmelt ............... NO
    Groundwater ............ NO
    Flow Routing ........... YES
    Ponding Allowed ........ NO
    Water Quality .......... NO
  Infiltration Method ...... HORTON
  Flow Routing Method ...... DYNWAVE
  Surcharge Method ......... EXTRAN
  Starting Date ............ 03/13/2009 17:50:00
  Ending Date .............. 03/13/2009 23:40:00
  Antecedent Dry Days ...... 0.0
  Report Time Step ......... 00:05:00
  Wet Time Step ............ 00:05:00
  Dry Time Step ............ 01:00:00
  Routing Time Step ........ 30.00 sec
  Variable Time Step ....... YES
  Maximum Trials ........... 8
  Number of Threads ........ 1
  Head Tolerance ........... 0.001500 m
  
  
  **************************        Volume         Depth
  Runoff Quantity Continuity     hectare-m            mm
  **************************     ---------       -------
  Total Precipitation ......         1.321         7.330
  Evaporation Loss .........         0.000         0.000
  Infiltration Loss ........         0.000         0.000
  Surface Runoff ...........         1.284         7.127
  Final Storage ............         0.038         0.211
  Continuity Error (%) .....        -0.117
  
  
  **************************        Volume        Volume
  Flow Routing Continuity        hectare-m      10^6 ltr
  **************************     ---------     ---------
  Dry Weather Inflow .......         0.138         1.382
  Wet Weather Inflow .......         1.284        12.836
  Groundwater Inflow .......         0.000         0.000
  RDII Inflow ..............         0.000         0.000
  External Inflow ..........         0.000         0.000
  External Outflow .........         0.434         4.337
  Flooding Loss ............         0.101         1.014
  Evaporation Loss .........         0.000         0.000
  Exfiltration Loss ........         0.000         0.000
  Initial Stored Volume ....         0.000         0.000
  Final Stored Volume ......         0.672         6.721
  Continuity Error (%) .....        15.099
  
  
  *************************
  Highest Continuity Errors
  *************************
  Node T2 (40.13%)
  Node T4 (30.72%)
  Node T5 (27.19%)
  Node T6 (24.05%)
  Node T3 (23.16%)
  
  
  ***************************
  Time-Step Critical Elements
  ***************************
  Link C15 (58.51%)
  
  
  ********************************
  Highest Flow Instability Indexes
  ********************************
  Link C13 (6)
  Link V3 (4)
  Link C3 (3)
  Link C11 (3)
  Link C23 (2)
  
  
  *************************
  Routing Time Step Summary
  *************************
  Minimum Time Step           :     0.19 sec
  Average Time Step           :    24.07 sec
  Maximum Time Step           :    30.00 sec
  Percent in Steady State     :     1.43
  Average Iterations per Step :     2.20
  Percent Not Converging      :     0.35
  
  
  ***************************
  Subcatchment Runoff Summary
  ***************************
  
  ------------------------------------------------------------------------------------------------------------------------------
                            Total      Total      Total      Total     Imperv       Perv      Total       Total     Peak  Runoff
                           Precip      Runon       Evap      Infil     Runoff     Runoff     Runoff      Runoff   Runoff   Coeff
  Subcatchment                 mm         mm         mm         mm         mm         mm         mm    10^6 ltr      CMS
  ------------------------------------------------------------------------------------------------------------------------------
  SC01                       6.89       0.00       0.00       0.00       6.77       0.00       6.77        2.23     0.41   0.982
  SC010                      6.89       0.00       0.00       0.00       6.72       0.00       6.72        0.79     0.14   0.975
  SC02                       6.67       0.00       0.00       0.00       6.53       0.00       6.53        1.49     0.28   0.980
  SC03                       7.67       0.00       0.00       0.00       7.58       0.00       7.58        1.37     0.24   0.989
  SC04                       6.67       0.00       0.00       0.00       6.35       0.00       6.35        0.44     0.07   0.952
  SC05                       6.89       0.00       0.00       0.00       6.76       0.00       6.76        1.05     0.19   0.981
  SC06                       8.18       0.00       0.00       0.00       7.77       0.00       7.77        2.53     0.36   0.950
  SC07                       6.67       0.00       0.00       0.00       6.35       0.00       6.35        0.30     0.05   0.953
  SC08                       7.67       0.00       0.00       0.00       7.49       0.00       7.49        2.10     0.34   0.976
  SC09                       8.18       0.00       0.00       0.00       7.95       0.00       7.95        0.55     0.08   0.972
  
  
  ******************
  Node Depth Summary
  ******************
  
  ---------------------------------------------------------------------------------
                                 Average  Maximum  Maximum  Time of Max    Reported
                                   Depth    Depth      HGL   Occurrence   Max Depth
  Node                 Type       Meters   Meters   Meters  days hr:min      Meters
  ---------------------------------------------------------------------------------
  CSO10                JUNCTION     0.16     0.33    30.33     0  01:45        0.33
  CSO7                 JUNCTION     0.11     0.20    34.20     0  01:50        0.20
  CSO8                 JUNCTION     0.20     0.67    32.67     0  01:39        0.66
  CSO9                 JUNCTION     0.18     0.63    40.63     0  01:50        0.63
  J1                   JUNCTION     0.08     0.15    34.15     0  01:45        0.15
  J10                  JUNCTION     0.13     0.23    29.23     0  01:44        0.23
  J11                  JUNCTION     0.14     0.25    31.25     0  01:45        0.25
  J12                  JUNCTION     0.23     0.39    26.39     0  04:15        0.39
  J13                  JUNCTION     0.08     0.15    29.15     0  01:41        0.15
  J14                  JUNCTION     0.12     0.19    20.19     0  03:32        0.18
  J15                  JUNCTION     0.18     0.28    15.28     0  01:48        0.28
  J16                  JUNCTION     0.09     0.16    30.16     0  01:45        0.16
  J17                  JUNCTION     0.05     0.07    20.07     0  04:58        0.07
  J18                  JUNCTION     0.07     0.14    29.14     0  01:46        0.14
  J19                  JUNCTION     0.15     0.17     8.17     0  02:11        0.17
  J2                   JUNCTION     0.06     0.07    25.07     0  03:48        0.07
  J3                   JUNCTION     0.10     0.15    18.15     0  03:10        0.15
  J4                   JUNCTION     0.13     0.24    33.24     0  01:52        0.24
  J5                   JUNCTION     0.07     0.12    32.12     0  01:51        0.12
  J6                   JUNCTION     0.05     0.07    25.07     0  04:00        0.07
  J7                   JUNCTION     0.11     0.19    39.19     0  01:50        0.19
  J8                   JUNCTION     0.14     0.22    36.22     0  01:51        0.22
  J9                   JUNCTION     0.11     0.16    29.16     0  03:15        0.16
  Out_to_WWTP          OUTFALL      0.14     0.17     6.17     0  03:49        0.17
  T1                   STORAGE      3.52     5.00    15.00     0  02:10        5.00
  T2                   STORAGE      2.21     3.60    24.60     0  04:44        3.60
  T3                   STORAGE      2.64     4.39    26.39     0  04:20        4.39
  T4                   STORAGE      2.23     3.76    30.76     0  04:42        3.76
  T5                   STORAGE      2.82     4.25    31.25     0  03:46        4.25
  T6                   STORAGE      3.47     5.00    36.00     0  02:30        5.00
  
  
  *******************
  Node Inflow Summary
  *******************
  
  -------------------------------------------------------------------------------------------------
                                  Maximum  Maximum                  Lateral       Total        Flow
                                  Lateral    Total  Time of Max      Inflow      Inflow     Balance
                                   Inflow   Inflow   Occurrence      Volume      Volume       Error
  Node                 Type           CMS      CMS  days hr:min    10^6 ltr    10^6 ltr     Percent
  -------------------------------------------------------------------------------------------------
  CSO10                JUNCTION     0.143    0.143     0  01:45       0.841       0.841       0.012
  CSO7                 JUNCTION     0.056    0.056     0  01:50       0.411       0.411       0.051
  CSO8                 JUNCTION     0.341    0.341     0  01:45         2.1         2.1      -0.002
  CSO9                 JUNCTION     0.090    0.090     0  01:50       0.622       0.622       0.020
  J1                   JUNCTION     0.207    0.207     0  01:45        1.26        1.26      -0.150
  J10                  JUNCTION     0.252    0.582     0  01:42        1.51        3.61      -0.042
  J11                  JUNCTION     0.000    0.341     0  01:45           0         2.1       0.130
  J12                  JUNCTION     0.000    0.653     0  01:56           0        5.47       2.043
  J13                  JUNCTION     0.291    0.291     0  01:40        1.66        1.66      -0.449
  J14                  JUNCTION     0.000    0.174     0  03:35           0         1.7       0.269
  J15                  JUNCTION     0.000    0.710     0  01:45           0         6.1       0.941
  J16                  JUNCTION     0.425    0.425     0  01:45        2.44        2.44      -0.097
  J17                  JUNCTION     0.000    0.028     0  04:45           0        0.32       1.661
  J18                  JUNCTION     0.000    0.143     0  01:45           0       0.841       0.000
  J19                  JUNCTION     0.000    0.271     0  02:10           0        4.35       0.256
  J2                   JUNCTION     0.000    0.036     0  03:46           0       0.578       0.842
  J3                   JUNCTION     0.000    0.225     0  03:10           0        2.52       0.979
  J4                   JUNCTION     0.000    0.056     0  01:50           0       0.411       0.374
  J5                   JUNCTION     0.074    0.129     0  01:50       0.486       0.895      -0.019
  J6                   JUNCTION     0.000    0.024     0  04:00           0       0.254       0.827
  J7                   JUNCTION     0.000    0.090     0  01:50           0       0.622       0.242
  J8                   JUNCTION     0.382    0.471     0  01:50        2.88         3.5      -0.005
  J9                   JUNCTION     0.000    0.175     0  02:30           0        1.66       0.394
  Out_to_WWTP          OUTFALL      0.000    0.271     0  02:12           0        4.34       0.000
  T1                   STORAGE      0.000    0.695     0  01:48           0        6.04      10.841
  T2                   STORAGE      0.000    0.289     0  01:41           0        1.67      67.042
  T3                   STORAGE      0.000    0.645     0  01:59           0        5.36      30.144
  T4                   STORAGE      0.000    0.129     0  01:51           0       0.895      44.342
  T5                   STORAGE      0.000    0.207     0  01:45           0        1.27      37.350
  T6                   STORAGE      0.000    0.470     0  01:51           0         3.5      31.669
  
  
  **********************
  Node Surcharge Summary
  **********************
  
  Surcharging occurs when water rises above the top of the highest conduit.
  ---------------------------------------------------------------------
                                               Max. Height   Min. Depth
                                   Hours       Above Crown    Below Rim
  Node                 Type      Surcharged         Meters       Meters
  ---------------------------------------------------------------------
  CSO8                 JUNCTION        0.25          0.222        1.325
  CSO9                 JUNCTION        0.40          0.315        1.367
  
  
  *********************
  Node Flooding Summary
  *********************
  
  Flooding refers to all water that overflows a node, whether it ponds or not.
  --------------------------------------------------------------------------
                                                             Total   Maximum
                                 Maximum   Time of Max       Flood    Ponded
                        Hours       Rate    Occurrence      Volume     Depth
  Node                 Flooded       CMS   days hr:min    10^6 ltr    Meters
  --------------------------------------------------------------------------
  T1                      1.54     0.220      0  02:10       0.604     0.000
  T6                      1.09     0.169      0  02:30       0.409     0.000
  
  
  **********************
  Storage Volume Summary
  **********************
  
  --------------------------------------------------------------------------------------------------
                         Average     Avg  Evap Exfil       Maximum     Max    Time of Max    Maximum
                          Volume    Pcnt  Pcnt  Pcnt        Volume    Pcnt     Occurrence    Outflow
  Storage Unit           1000 m3    Full  Loss  Loss       1000 m3    Full    days hr:min        CMS
  --------------------------------------------------------------------------------------------------
  T1                       0.492      70     0     0         0.700     100       0  02:10      0.271
  T2                       0.442      44     0     0         0.720      72       0  04:44      0.028
  T3                       1.372      53     0     0         2.283      88       0  04:20      0.234
  T4                       0.223      45     0     0         0.376      75       0  04:42      0.024
  T5                       0.282      56     0     0         0.425      85       0  03:46      0.036
  T6                       0.417      69     0     0         0.600     100       0  02:30      0.175
  
  
  ***********************
  Outfall Loading Summary
  ***********************
  
  -----------------------------------------------------------
                         Flow       Avg       Max       Total
                         Freq      Flow      Flow      Volume
  Outfall Node           Pcnt       CMS       CMS    10^6 ltr
  -----------------------------------------------------------
  Out_to_WWTP           98.74     0.213     0.271       4.337
  -----------------------------------------------------------
  System                98.74     0.213     0.271       4.337
  
  
  ********************
  Link Flow Summary
  ********************
  
  -----------------------------------------------------------------------------
                                 Maximum  Time of Max   Maximum    Max/    Max/
                                  |Flow|   Occurrence   |Veloc|    Full    Full
  Link                 Type          CMS  days hr:min     m/sec    Flow   Depth
  -----------------------------------------------------------------------------
  C1                   CONDUIT     0.036     0  03:48      1.04    0.01    0.11
  C10                  CONDUIT     0.470     0  01:51      1.59    0.05    0.57
  C11                  CONDUIT     0.222     0  03:10      1.67    0.01    0.10
  C12                  CONDUIT     0.175     0  03:14      1.23    0.01    0.13
  C13                  CONDUIT     0.645     0  01:59      1.71    0.04    0.60
  C14                  CONDUIT     0.271     0  02:12      2.08    0.02    0.09
  C15                  CONDUIT     0.341     0  01:45      2.67    1.08    0.78
  C16                  CONDUIT     0.340     0  01:45      1.58    0.03    0.12
  C17                  CONDUIT     0.582     0  01:44      2.63    0.03    0.12
  C18                  CONDUIT     0.289     0  01:41      4.72    0.01    0.53
  C19                  CONDUIT     0.028     0  04:58      0.68    0.01    0.17
  C2                   CONDUIT     0.023     0  04:00      0.95    0.03    0.18
  C20                  CONDUIT     0.425     0  01:45      3.71    0.01    0.11
  C21                  CONDUIT     0.143     0  01:45      1.74    0.82    0.53
  C22                  CONDUIT     0.142     0  01:46      1.37    0.06    0.26
  C23                  CONDUIT     0.695     0  01:48      1.59    0.08    0.59
  C3                   CONDUIT     0.176     0  03:33      2.22    0.07    0.16
  C4                   CONDUIT     0.207     0  01:45      4.05    0.05    0.58
  C5                   CONDUIT     0.056     0  01:50      1.21    0.96    0.86
  C6                   CONDUIT     0.056     0  01:52      1.25    0.88    0.60
  C7                   CONDUIT     0.129     0  01:51      1.38    0.03    0.56
  C8                   CONDUIT     0.090     0  01:50      1.32    1.13    0.80
  C9                   CONDUIT     0.089     0  01:51      1.16    0.31    0.41
  V1                   ORIFICE     0.271     0  02:10                      1.00
  V2                   ORIFICE     0.028     0  04:45                      1.00
  V3                   ORIFICE     0.174     0  03:35                      1.00
  V4                   ORIFICE     0.024     0  04:00                      1.00
  V5                   ORIFICE     0.036     0  03:46                      1.00
  V6                   ORIFICE     0.175     0  02:30                      1.00
  
  
  ***************************
  Flow Classification Summary
  ***************************
  
  -------------------------------------------------------------------------------------
                      Adjusted    ---------- Fraction of Time in Flow Class ---------- 
                       /Actual         Up    Down  Sub   Sup   Up    Down  Norm  Inlet 
  Conduit               Length    Dry  Dry   Dry   Crit  Crit  Crit  Crit  Ltd   Ctrl  
  -------------------------------------------------------------------------------------
  C1                      1.00   0.00  0.00  0.00  0.31  0.69  0.00  0.00  0.92  0.00
  C10                     1.00   0.00  0.00  0.00  0.95  0.05  0.00  0.00  0.97  0.00
  C11                     1.00   0.00  0.00  0.00  0.39  0.60  0.00  0.00  1.00  0.00
  C12                     1.00   0.00  0.00  0.00  0.90  0.10  0.00  0.00  1.00  0.00
  C13                     1.00   0.00  0.00  0.00  0.88  0.12  0.00  0.00  0.47  0.00
  C14                     1.00   0.01  0.00  0.00  0.01  0.98  0.00  0.00  0.33  0.00
  C15                     1.00   0.00  0.00  0.00  0.00  1.00  0.00  0.00  0.01  0.00
  C16                     1.00   0.00  0.00  0.00  0.17  0.83  0.00  0.00  0.17  0.00
  C17                     1.00   0.00  0.00  0.00  0.31  0.69  0.00  0.00  0.95  0.00
  C18                     1.00   0.00  0.00  0.00  0.90  0.10  0.00  0.00  0.95  0.00
  C19                     1.00   0.00  0.00  0.00  1.00  0.00  0.00  0.00  1.00  0.00
  C2                      1.00   0.00  0.00  0.00  0.90  0.10  0.00  0.00  0.96  0.00
  C20                     1.00   0.00  0.00  0.00  0.29  0.71  0.00  0.00  0.97  0.00
  C21                     1.00   0.00  0.00  0.00  0.00  1.00  0.00  0.00  0.00  0.00
  C22                     1.00   0.00  0.00  0.00  0.70  0.30  0.00  0.00  1.00  0.00
  C23                     1.00   0.00  0.00  0.00  0.92  0.08  0.00  0.00  0.93  0.00
  C3                      1.00   0.00  0.01  0.00  0.05  0.94  0.00  0.00  0.34  0.00
  C4                      1.00   0.00  0.00  0.00  0.94  0.06  0.00  0.00  0.97  0.00
  C5                      1.00   0.00  0.00  0.00  0.84  0.16  0.00  0.00  0.97  0.00
  C6                      1.00   0.00  0.00  0.00  0.01  0.99  0.00  0.00  0.01  0.00
  C7                      1.00   0.00  0.00  0.00  0.93  0.07  0.00  0.00  0.95  0.00
  C8                      1.00   0.00  0.00  0.00  0.30  0.70  0.00  0.00  0.00  0.00
  C9                      1.00   0.00  0.00  0.00  1.00  0.00  0.00  0.00  1.00  0.00
  
  
  *************************
  Conduit Surcharge Summary
  *************************
  
  ----------------------------------------------------------------------------
                                                           Hours        Hours 
                         --------- Hours Full --------   Above Full   Capacity
  Conduit                Both Ends  Upstream  Dnstream   Normal Flow   Limited
  ----------------------------------------------------------------------------
  C10                         0.01      0.01      4.27      0.01         0.01
  C13                         0.01      0.01      3.83      0.01         0.01
  C15                         0.01      0.25      0.01      0.36         0.01
  C18                         0.01      0.01      3.78      0.01         0.01
  C23                         0.01      0.01      4.43      0.01         0.01
  C4                          0.01      0.01      4.51      0.01         0.01
  C7                          0.01      0.01      4.16      0.01         0.01
  C8                          0.01      0.40      0.01      0.41         0.01
  

  Analysis begun on:  Sun Jul 17 21:24:40 2022
  Analysis ended on:  Sun Jul 17 21:24:41 2022
  Total elapsed time: 00:00:01