
  EPA STORM WATER MANAGEMENT MODEL - VERSION 5.1 (Build 5.3.0.dev0)
  --------------------------------------------------------------

  
  *********************************************************
  NOTE: The summary statistics displayed in this report are
  based on results found at every computational time step,  
  not just on results from each reporting time step.
  *********************************************************
  
  ****************
  Analysis Options
  ****************
  Flow Units ............... CMS
  Process Models:
    Rainfall/Runoff ........ YES
    RDII ................... NO
    Snowmelt ............... NO
    Groundwater ............ NO
    Flow Routing ........... YES
    Ponding Allowed ........ NO
    Water Quality .......... NO
  Infiltration Method ...... HORTON
  Flow Routing Method ...... DYNWAVE
  Surcharge Method ......... EXTRAN
  Starting Date ............ 11/12/2007 20:25:00
  Ending Date .............. 11/13/2007 07:45:00
  Antecedent Dry Days ...... 0.0
  Report Time Step ......... 00:05:00
  Wet Time Step ............ 00:05:00
  Dry Time Step ............ 01:00:00
  Routing Time Step ........ 30.00 sec
  Variable Time Step ....... YES
  Maximum Trials ........... 8
  Number of Threads ........ 1
  Head Tolerance ........... 0.001500 m
  
  
  **************************        Volume         Depth
  Runoff Quantity Continuity     hectare-m            mm
  **************************     ---------       -------
  Total Precipitation ......         1.162         6.451
  Evaporation Loss .........         0.000         0.000
  Infiltration Loss ........         0.000         0.000
  Surface Runoff ...........         1.136         6.303
  Final Storage ............         0.028         0.156
  Continuity Error (%) .....        -0.138
  
  
  **************************        Volume        Volume
  Flow Routing Continuity        hectare-m      10^6 ltr
  **************************     ---------     ---------
  Dry Weather Inflow .......         0.193         1.929
  Wet Weather Inflow .......         1.136        11.355
  Groundwater Inflow .......         0.000         0.000
  RDII Inflow ..............         0.000         0.000
  External Inflow ..........         0.000         0.000
  External Outflow .........         0.866         8.657
  Flooding Loss ............         0.006         0.063
  Evaporation Loss .........         0.000         0.000
  Exfiltration Loss ........         0.000         0.000
  Initial Stored Volume ....         0.000         0.000
  Final Stored Volume ......         0.399         3.992
  Continuity Error (%) .....         4.307
  
  
  *************************
  Highest Continuity Errors
  *************************
  Node T6 (20.80%)
  Node T2 (17.67%)
  Node T5 (15.38%)
  Node T3 (13.17%)
  Node T4 (6.46%)
  
  
  ***************************
  Time-Step Critical Elements
  ***************************
  Link C15 (27.03%)
  
  
  ********************************
  Highest Flow Instability Indexes
  ********************************
  Link C12 (5)
  Link C3 (5)
  Link C23 (5)
  Link C11 (5)
  Link C13 (5)
  
  
  *************************
  Routing Time Step Summary
  *************************
  Minimum Time Step           :     0.10 sec
  Average Time Step           :    28.77 sec
  Maximum Time Step           :    30.00 sec
  Percent in Steady State     :     2.06
  Average Iterations per Step :     2.04
  Percent Not Converging      :     0.00
  
  
  ***************************
  Subcatchment Runoff Summary
  ***************************
  
  ------------------------------------------------------------------------------------------------------------------------------
                            Total      Total      Total      Total     Imperv       Perv      Total       Total     Peak  Runoff
                           Precip      Runon       Evap      Infil     Runoff     Runoff     Runoff      Runoff   Runoff   Coeff
  Subcatchment                 mm         mm         mm         mm         mm         mm         mm    10^6 ltr      CMS
  ------------------------------------------------------------------------------------------------------------------------------
  SC01                       7.90       0.00       0.00       0.00       7.80       0.00       7.80        2.58     0.20   0.988
  SC010                      7.90       0.00       0.00       0.00       7.77       0.00       7.77        0.91     0.07   0.983
  SC02                       6.79       0.00       0.00       0.00       6.68       0.00       6.68        1.52     0.10   0.984
  SC03                       4.33       0.00       0.00       0.00       4.25       0.00       4.25        0.77     0.07   0.983
  SC04                       6.79       0.00       0.00       0.00       6.56       0.00       6.56        0.45     0.03   0.966
  SC05                       7.90       0.00       0.00       0.00       7.79       0.00       7.79        1.22     0.09   0.987
  SC06                       6.41       0.00       0.00       0.00       6.14       0.00       6.14        2.00     0.14   0.958
  SC07                       6.79       0.00       0.00       0.00       6.56       0.00       6.56        0.31     0.02   0.966
  SC08                       4.33       0.00       0.00       0.00       4.20       0.00       4.20        1.18     0.09   0.970
  SC09                       6.41       0.00       0.00       0.00       6.24       0.00       6.24        0.43     0.03   0.974
  
  
  ******************
  Node Depth Summary
  ******************
  
  ---------------------------------------------------------------------------------
                                 Average  Maximum  Maximum  Time of Max    Reported
                                   Depth    Depth      HGL   Occurrence   Max Depth
  Node                 Type       Meters   Meters   Meters  days hr:min      Meters
  ---------------------------------------------------------------------------------
  CSO10                JUNCTION     0.11     0.21    30.21     0  01:35        0.21
  CSO7                 JUNCTION     0.08     0.11    34.11     0  01:35        0.11
  CSO8                 JUNCTION     0.09     0.17    32.17     0  01:50        0.17
  CSO9                 JUNCTION     0.09     0.15    40.15     0  01:25        0.15
  J1                   JUNCTION     0.06     0.11    34.11     0  01:35        0.11
  J10                  JUNCTION     0.07     0.13    29.13     0  01:02        0.13
  J11                  JUNCTION     0.07     0.13    31.13     0  01:53        0.13
  J12                  JUNCTION     0.11     0.15    26.15     0  03:26        0.15
  J13                  JUNCTION     0.06     0.09    29.09     0  00:50        0.09
  J14                  JUNCTION     0.11     0.15    20.15     0  09:53        0.15
  J15                  JUNCTION     0.16     0.22    15.22     0  01:38        0.22
  J16                  JUNCTION     0.06     0.12    30.12     0  01:35        0.12
  J17                  JUNCTION     0.07     0.11    20.11     0  08:32        0.11
  J18                  JUNCTION     0.06     0.10    29.10     0  01:36        0.10
  J19                  JUNCTION     0.15     0.17     8.17     0  03:53        0.17
  J2                   JUNCTION     0.06     0.07    25.07     0  04:14        0.07
  J3                   JUNCTION     0.10     0.13    18.13     0  04:20        0.13
  J4                   JUNCTION     0.09     0.13    33.13     0  01:35        0.13
  J5                   JUNCTION     0.05     0.08    32.08     0  01:44        0.08
  J6                   JUNCTION     0.06     0.10    25.10     0  03:52        0.10
  J7                   JUNCTION     0.07     0.12    39.12     0  01:29        0.12
  J8                   JUNCTION     0.09     0.14    36.14     0  01:29        0.14
  J9                   JUNCTION     0.08     0.16    29.16     0  06:00        0.16
  Out_to_WWTP          OUTFALL      0.15     0.17     6.17     0  04:27        0.17
  T1                   STORAGE      3.31     5.00    15.00     0  03:52        5.00
  T2                   STORAGE      1.10     1.60    22.60     0  08:10        1.60
  T3                   STORAGE      1.30     1.79    23.79     0  09:50        1.79
  T4                   STORAGE      1.05     1.89    28.89     0  04:05        1.89
  T5                   STORAGE      2.26     3.06    30.06     0  04:12        3.06
  T6                   STORAGE      3.27     4.49    35.49     0  05:41        4.49
  
  
  *******************
  Node Inflow Summary
  *******************
  
  -------------------------------------------------------------------------------------------------
                                  Maximum  Maximum                  Lateral       Total        Flow
                                  Lateral    Total  Time of Max      Inflow      Inflow     Balance
                                   Inflow   Inflow   Occurrence      Volume      Volume       Error
  Node                 Type           CMS      CMS  days hr:min    10^6 ltr    10^6 ltr     Percent
  -------------------------------------------------------------------------------------------------
  CSO10                JUNCTION     0.071    0.071     0  01:35       0.983       0.984       0.031
  CSO7                 JUNCTION     0.022    0.022     0  01:35       0.459       0.459       0.097
  CSO8                 JUNCTION     0.092    0.092     0  01:50        1.24        1.24       0.014
  CSO9                 JUNCTION     0.035    0.035     0  01:25        0.53        0.53       0.071
  J1                   JUNCTION     0.103    0.103     0  01:35         1.5         1.5      -0.001
  J10                  JUNCTION     0.079    0.164     0  01:00       0.962         2.2       0.160
  J11                  JUNCTION     0.000    0.092     0  01:50           0        1.24       0.445
  J12                  JUNCTION     0.000    0.241     0  03:25           0        4.13       0.252
  J13                  JUNCTION     0.112    0.112     0  00:50        1.76        1.76      -0.195
  J14                  JUNCTION     0.000    0.113     0  09:50           0        2.72      -0.396
  J15                  JUNCTION     0.000    0.418     0  01:35           0        9.59       0.656
  J16                  JUNCTION     0.210    0.210     0  01:35        2.86        2.86      -0.015
  J17                  JUNCTION     0.000    0.079     0  08:10           0        1.16      -0.426
  J18                  JUNCTION     0.000    0.070     0  01:35           0       0.983       0.072
  J19                  JUNCTION     0.000    0.271     0  03:53           0        8.67       0.113
  J2                   JUNCTION     0.000    0.031     0  04:12           0        1.05       0.385
  J3                   JUNCTION     0.000    0.181     0  04:15           0         4.6       0.470
  J4                   JUNCTION     0.000    0.022     0  01:35           0       0.459       0.816
  J5                   JUNCTION     0.028    0.049     0  01:42       0.517       0.973       0.141
  J6                   JUNCTION     0.000    0.049     0  04:05           0       0.824       0.443
  J7                   JUNCTION     0.000    0.035     0  01:26           0        0.53       0.595
  J8                   JUNCTION     0.147    0.181     0  01:26        2.48           3       0.131
  J9                   JUNCTION     0.000    0.166     0  05:55           0        1.94      -0.023
  Out_to_WWTP          OUTFALL      0.000    0.271     0  03:54           0        8.66       0.000
  T1                   STORAGE      0.000    0.410     0  01:38           0        9.52       4.927
  T2                   STORAGE      0.000    0.112     0  00:50           0        1.76      21.468
  T3                   STORAGE      0.000    0.207     0  06:51           0        4.12      15.172
  T4                   STORAGE      0.000    0.049     0  01:44           0       0.971       6.903
  T5                   STORAGE      0.000    0.102     0  01:35           0         1.5      18.171
  T6                   STORAGE      0.000    0.180     0  01:29           0           3      26.266
  
  
  **********************
  Node Surcharge Summary
  **********************
  
  No nodes were surcharged.
  
  
  *********************
  Node Flooding Summary
  *********************
  
  Flooding refers to all water that overflows a node, whether it ponds or not.
  --------------------------------------------------------------------------
                                                             Total   Maximum
                                 Maximum   Time of Max       Flood    Ponded
                        Hours       Rate    Occurrence      Volume     Depth
  Node                 Flooded       CMS   days hr:min    10^6 ltr    Meters
  --------------------------------------------------------------------------
  T1                      0.45     0.052      0  04:01       0.063     0.000
  
  
  **********************
  Storage Volume Summary
  **********************
  
  --------------------------------------------------------------------------------------------------
                         Average     Avg  Evap Exfil       Maximum     Max    Time of Max    Maximum
                          Volume    Pcnt  Pcnt  Pcnt        Volume    Pcnt     Occurrence    Outflow
  Storage Unit           1000 m3    Full  Loss  Loss       1000 m3    Full    days hr:min        CMS
  --------------------------------------------------------------------------------------------------
  T1                       0.464      66     0     0         0.700     100       0  03:52      0.271
  T2                       0.221      22     0     0         0.319      32       0  08:10      0.079
  T3                       0.678      26     0     0         0.932      36       0  09:50      0.113
  T4                       0.105      21     0     0         0.189      38       0  04:05      0.049
  T5                       0.226      45     0     0         0.306      61       0  04:12      0.031
  T6                       0.392      65     0     0         0.539      90       0  05:41      0.166
  
  
  ***********************
  Outfall Loading Summary
  ***********************
  
  -----------------------------------------------------------
                         Flow       Avg       Max       Total
                         Freq      Flow      Flow      Volume
  Outfall Node           Pcnt       CMS       CMS    10^6 ltr
  -----------------------------------------------------------
  Out_to_WWTP           99.22     0.212     0.271       8.657
  -----------------------------------------------------------
  System                99.22     0.212     0.271       8.657
  
  
  ********************
  Link Flow Summary
  ********************
  
  -----------------------------------------------------------------------------
                                 Maximum  Time of Max   Maximum    Max/    Max/
                                  |Flow|   Occurrence   |Veloc|    Full    Full
  Link                 Type          CMS  days hr:min     m/sec    Flow   Depth
  -----------------------------------------------------------------------------
  C1                   CONDUIT     0.031     0  04:14      0.99    0.01    0.10
  C10                  CONDUIT     0.180     0  01:29      1.55    0.02    0.55
  C11                  CONDUIT     0.180     0  04:20      1.70    0.01    0.08
  C12                  CONDUIT     0.161     0  04:20      1.65    0.01    0.08
  C13                  CONDUIT     0.207     0  06:51      1.81    0.01    0.47
  C14                  CONDUIT     0.271     0  03:54      2.08    0.02    0.09
  C15                  CONDUIT     0.092     0  01:50      1.93    0.29    0.34
  C16                  CONDUIT     0.090     0  01:06      1.05    0.01    0.06
  C17                  CONDUIT     0.164     0  01:03      1.75    0.01    0.07
  C18                  CONDUIT     0.112     0  00:50      5.94    0.00    0.41
  C19                  CONDUIT     0.077     0  08:32      1.25    0.03    0.16
  C2                   CONDUIT     0.048     0  03:52      1.52    0.05    0.19
  C20                  CONDUIT     0.209     0  01:35      4.25    0.01    0.08
  C21                  CONDUIT     0.070     0  01:35      1.47    0.40    0.35
  C22                  CONDUIT     0.069     0  01:36      1.00    0.03    0.20
  C23                  CONDUIT     0.410     0  01:38      1.67    0.05    0.57
  C3                   CONDUIT     0.114     0  09:54      1.85    0.04    0.14
  C4                   CONDUIT     0.102     0  01:35      4.82    0.02    0.55
  C5                   CONDUIT     0.022     0  01:35      1.18    0.37    0.46
  C6                   CONDUIT     0.021     0  01:35      0.99    0.33    0.34
  C7                   CONDUIT     0.049     0  01:44      1.35    0.01    0.54
  C8                   CONDUIT     0.035     0  01:26      1.10    0.44    0.42
  C9                   CONDUIT     0.034     0  01:29      0.87    0.12    0.26
  V1                   ORIFICE     0.271     0  03:53                      1.00
  V2                   ORIFICE     0.079     0  08:10                      1.00
  V3                   ORIFICE     0.113     0  09:50                      1.00
  V4                   ORIFICE     0.049     0  04:05                      1.00
  V5                   ORIFICE     0.031     0  04:12                      1.00
  V6                   ORIFICE     0.166     0  05:55                      1.00
  
  
  ***************************
  Flow Classification Summary
  ***************************
  
  -------------------------------------------------------------------------------------
                      Adjusted    ---------- Fraction of Time in Flow Class ---------- 
                       /Actual         Up    Down  Sub   Sup   Up    Down  Norm  Inlet 
  Conduit               Length    Dry  Dry   Dry   Crit  Crit  Crit  Crit  Ltd   Ctrl  
  -------------------------------------------------------------------------------------
  C1                      1.00   0.00  0.00  0.00  0.26  0.74  0.00  0.00  0.95  0.00
  C10                     1.00   0.00  0.00  0.00  0.95  0.05  0.00  0.00  0.98  0.00
  C11                     1.00   0.00  0.00  0.00  0.24  0.76  0.00  0.00  1.00  0.00
  C12                     1.00   0.00  0.00  0.00  0.61  0.39  0.00  0.00  0.84  0.00
  C13                     1.00   0.00  0.00  0.00  0.92  0.08  0.00  0.00  0.93  0.00
  C14                     1.00   0.00  0.00  0.00  0.01  0.99  0.00  0.00  0.27  0.00
  C15                     1.00   0.02  0.00  0.00  0.00  0.98  0.00  0.00  0.00  0.00
  C16                     1.00   0.00  0.02  0.00  0.45  0.53  0.00  0.00  0.25  0.00
  C17                     1.00   0.00  0.00  0.00  0.37  0.63  0.00  0.00  0.98  0.00
  C18                     1.00   0.00  0.00  0.00  0.94  0.06  0.00  0.00  0.98  0.00
  C19                     1.00   0.00  0.00  0.00  0.94  0.06  0.00  0.00  1.00  0.00
  C2                      1.00   0.00  0.00  0.00  0.52  0.48  0.00  0.00  1.00  0.00
  C20                     1.00   0.00  0.00  0.00  0.55  0.45  0.00  0.00  0.99  0.00
  C21                     1.00   0.00  0.00  0.00  0.00  1.00  0.00  0.00  0.00  0.00
  C22                     1.00   0.00  0.00  0.00  0.94  0.06  0.00  0.00  1.00  0.00
  C23                     1.00   0.00  0.00  0.00  0.95  0.05  0.00  0.00  0.96  0.00
  C3                      1.00   0.00  0.00  0.00  0.04  0.95  0.00  0.00  0.37  0.00
  C4                      1.00   0.00  0.00  0.00  0.96  0.04  0.00  0.00  0.98  0.00
  C5                      1.00   0.00  0.00  0.00  0.78  0.22  0.00  0.00  0.99  0.00
  C6                      1.00   0.00  0.00  0.00  0.01  0.99  0.00  0.00  0.00  0.00
  C7                      1.00   0.00  0.00  0.00  0.95  0.05  0.00  0.00  0.98  0.00
  C8                      1.00   0.00  0.00  0.00  0.00  1.00  0.00  0.00  0.00  0.00
  C9                      1.00   0.00  0.00  0.00  1.00  0.00  0.00  0.00  1.00  0.00
  
  
  *************************
  Conduit Surcharge Summary
  *************************
  
  ----------------------------------------------------------------------------
                                                           Hours        Hours 
                         --------- Hours Full --------   Above Full   Capacity
  Conduit                Both Ends  Upstream  Dnstream   Normal Flow   Limited
  ----------------------------------------------------------------------------
  C10                         0.01      0.01      9.86      0.01         0.01
  C23                         0.01      0.01     10.01      0.01         0.01
  C4                          0.01      0.01     10.07      0.01         0.01
  C7                          0.01      0.01      6.67      0.01         0.01
  

  Analysis begun on:  Sun Jul 17 20:15:55 2022
  Analysis ended on:  Sun Jul 17 20:15:56 2022
  Total elapsed time: 00:00:01