
  EPA STORM WATER MANAGEMENT MODEL - VERSION 5.1 (Build 5.3.0.dev0)
  --------------------------------------------------------------

  
  *********************************************************
  NOTE: The summary statistics displayed in this report are
  based on results found at every computational time step,  
  not just on results from each reporting time step.
  *********************************************************
  
  ****************
  Analysis Options
  ****************
  Flow Units ............... CMS
  Process Models:
    Rainfall/Runoff ........ YES
    RDII ................... NO
    Snowmelt ............... NO
    Groundwater ............ NO
    Flow Routing ........... YES
    Ponding Allowed ........ NO
    Water Quality .......... NO
  Infiltration Method ...... HORTON
  Flow Routing Method ...... DYNWAVE
  Surcharge Method ......... EXTRAN
  Starting Date ............ 03/30/2008 18:10:00
  Ending Date .............. 03/31/2008 03:25:00
  Antecedent Dry Days ...... 0.0
  Report Time Step ......... 00:05:00
  Wet Time Step ............ 00:05:00
  Dry Time Step ............ 01:00:00
  Routing Time Step ........ 30.00 sec
  Variable Time Step ....... YES
  Maximum Trials ........... 8
  Number of Threads ........ 1
  Head Tolerance ........... 0.001500 m
  
  
  **************************        Volume         Depth
  Runoff Quantity Continuity     hectare-m            mm
  **************************     ---------       -------
  Total Precipitation ......         1.745         9.683
  Evaporation Loss .........         0.000         0.000
  Infiltration Loss ........         0.000         0.000
  Surface Runoff ...........         1.717         9.530
  Final Storage ............         0.029         0.163
  Continuity Error (%) .....        -0.103
  
  
  **************************        Volume        Volume
  Flow Routing Continuity        hectare-m      10^6 ltr
  **************************     ---------     ---------
  Dry Weather Inflow .......         0.150         1.502
  Wet Weather Inflow .......         1.717        17.168
  Groundwater Inflow .......         0.000         0.000
  RDII Inflow ..............         0.000         0.000
  External Inflow ..........         0.000         0.000
  External Outflow .........         0.726         7.257
  Flooding Loss ............         0.248         2.483
  Evaporation Loss .........         0.000         0.000
  Exfiltration Loss ........         0.000         0.000
  Initial Stored Volume ....         0.000         0.000
  Final Stored Volume ......         0.678         6.778
  Continuity Error (%) .....        11.532
  
  
  *************************
  Highest Continuity Errors
  *************************
  Node T2 (27.98%)
  Node T3 (21.45%)
  Node T6 (20.84%)
  Node T4 (18.33%)
  Node T5 (18.04%)
  
  
  ***************************
  Time-Step Critical Elements
  ***************************
  Link C15 (42.90%)
  Link C21 (4.18%)
  
  
  ********************************
  Highest Flow Instability Indexes
  ********************************
  Link C13 (8)
  Link C11 (3)
  Link C23 (3)
  Link C3 (3)
  Link C20 (3)
  
  
  *************************
  Routing Time Step Summary
  *************************
  Minimum Time Step           :     0.07 sec
  Average Time Step           :    26.24 sec
  Maximum Time Step           :    30.00 sec
  Percent in Steady State     :     0.72
  Average Iterations per Step :     2.02
  Percent Not Converging      :     0.00
  
  
  ***************************
  Subcatchment Runoff Summary
  ***************************
  
  ------------------------------------------------------------------------------------------------------------------------------
                            Total      Total      Total      Total     Imperv       Perv      Total       Total     Peak  Runoff
                           Precip      Runon       Evap      Infil     Runoff     Runoff     Runoff      Runoff   Runoff   Coeff
  Subcatchment                 mm         mm         mm         mm         mm         mm         mm    10^6 ltr      CMS
  ------------------------------------------------------------------------------------------------------------------------------
  SC01                      10.22       0.00       0.00       0.00      10.12       0.00      10.12        3.34     0.28   0.990
  SC010                     10.22       0.00       0.00       0.00      10.08       0.00      10.08        1.18     0.10   0.986
  SC02                      13.69       0.00       0.00       0.00      13.59       0.00      13.59        3.09     0.29   0.992
  SC03                       7.41       0.00       0.00       0.00       7.33       0.00       7.33        1.32     0.20   0.989
  SC04                      13.69       0.00       0.00       0.00      13.46       0.00      13.46        0.93     0.08   0.983
  SC05                      10.22       0.00       0.00       0.00      10.11       0.00      10.11        1.58     0.13   0.989
  SC06                       8.02       0.00       0.00       0.00       7.74       0.00       7.74        2.52     0.26   0.965
  SC07                      13.69       0.00       0.00       0.00      13.46       0.00      13.46        0.64     0.06   0.983
  SC08                       7.41       0.00       0.00       0.00       7.26       0.00       7.26        2.03     0.27   0.980
  SC09                       8.02       0.00       0.00       0.00       7.85       0.00       7.85        0.54     0.06   0.979
  
  
  ******************
  Node Depth Summary
  ******************
  
  ---------------------------------------------------------------------------------
                                 Average  Maximum  Maximum  Time of Max    Reported
                                   Depth    Depth      HGL   Occurrence   Max Depth
  Node                 Type       Meters   Meters   Meters  days hr:min      Meters
  ---------------------------------------------------------------------------------
  CSO10                JUNCTION     0.15     0.26    30.26     0  02:35        0.26
  CSO7                 JUNCTION     0.11     0.22    34.22     0  03:00        0.22
  CSO8                 JUNCTION     0.13     0.34    32.34     0  02:40        0.33
  CSO9                 JUNCTION     0.11     0.23    40.23     0  02:50        0.23
  J1                   JUNCTION     0.08     0.13    34.13     0  02:35        0.13
  J10                  JUNCTION     0.10     0.21    29.21     0  02:43        0.21
  J11                  JUNCTION     0.10     0.22    31.22     0  02:43        0.22
  J12                  JUNCTION     0.22     0.38    26.38     0  05:21        0.37
  J13                  JUNCTION     0.08     0.15    29.15     0  02:56        0.15
  J14                  JUNCTION     0.10     0.19    20.19     0  06:22        0.18
  J15                  JUNCTION     0.18     0.28    15.28     0  04:11        0.28
  J16                  JUNCTION     0.08     0.14    30.14     0  02:35        0.13
  J17                  JUNCTION     0.08     0.15    20.15     0  04:18        0.15
  J18                  JUNCTION     0.07     0.11    29.11     0  02:38        0.11
  J19                  JUNCTION     0.15     0.17     8.17     0  02:38        0.17
  J2                   JUNCTION     0.07     0.08    25.08     0  04:36        0.08
  J3                   JUNCTION     0.10     0.16    18.16     0  04:10        0.16
  J4                   JUNCTION     0.14     0.26    33.26     0  03:03        0.26
  J5                   JUNCTION     0.08     0.13    32.13     0  03:00        0.13
  J6                   JUNCTION     0.06     0.12    25.12     0  04:10        0.12
  J7                   JUNCTION     0.08     0.16    39.16     0  02:53        0.16
  J8                   JUNCTION     0.11     0.19    36.19     0  02:52        0.19
  J9                   JUNCTION     0.10     0.16    29.16     0  04:25        0.16
  Out_to_WWTP          OUTFALL      0.15     0.17     6.17     0  04:51        0.17
  T1                   STORAGE      3.73     5.00    15.00     0  02:37        5.00
  T2                   STORAGE      3.80     5.00    26.00     0  03:53        5.00
  T3                   STORAGE      2.74     4.38    26.38     0  05:26        4.38
  T4                   STORAGE      3.76     5.00    32.00     0  03:15        5.00
  T5                   STORAGE      3.51     5.00    32.00     0  03:56        5.00
  T6                   STORAGE      3.28     5.00    36.00     0  04:03        5.00
  
  
  *******************
  Node Inflow Summary
  *******************
  
  -------------------------------------------------------------------------------------------------
                                  Maximum  Maximum                  Lateral       Total        Flow
                                  Lateral    Total  Time of Max      Inflow      Inflow     Balance
                                   Inflow   Inflow   Occurrence      Volume      Volume       Error
  Node                 Type           CMS      CMS  days hr:min    10^6 ltr    10^6 ltr     Percent
  -------------------------------------------------------------------------------------------------
  CSO10                JUNCTION     0.099    0.099     0  02:35        1.24        1.24       0.003
  CSO7                 JUNCTION     0.061    0.061     0  03:00       0.758       0.758       0.026
  CSO8                 JUNCTION     0.269    0.269     0  02:40        2.03        2.03       0.000
  CSO9                 JUNCTION     0.066    0.066     0  02:50       0.622       0.622       0.027
  J1                   JUNCTION     0.145    0.145     0  02:35        1.81        1.81      -0.120
  J10                  JUNCTION     0.210    0.460     0  02:42        1.48        3.51      -0.043
  J11                  JUNCTION     0.000    0.269     0  02:40           0        2.03       0.146
  J12                  JUNCTION     0.000    0.565     0  02:44           0        5.79       2.489
  J13                  JUNCTION     0.296    0.296     0  02:55        3.28        3.28      -0.261
  J14                  JUNCTION     0.000    0.176     0  06:20           0        2.16       0.218
  J15                  JUNCTION     0.000    0.724     0  04:10           0          10       0.380
  J16                  JUNCTION     0.295    0.295     0  02:35        3.57        3.57      -0.077
  J17                  JUNCTION     0.000    0.140     0  03:54           0        1.35       0.051
  J18                  JUNCTION     0.000    0.099     0  02:35           0        1.24      -0.011
  J19                  JUNCTION     0.000    0.271     0  02:37           0        7.27       0.132
  J2                   JUNCTION     0.000    0.039     0  03:56           0        1.04       0.448
  J3                   JUNCTION     0.000    0.278     0  04:10           0        3.88       0.548
  J4                   JUNCTION     0.000    0.061     0  03:00           0       0.758       0.226
  J5                   JUNCTION     0.083    0.142     0  03:00       0.981        1.74      -0.039
  J6                   JUNCTION     0.000    0.080     0  03:30           0       0.696       0.178
  J7                   JUNCTION     0.000    0.066     0  02:50           0       0.622       0.290
  J8                   JUNCTION     0.282    0.345     0  02:50        2.91        3.53       0.008
  J9                   JUNCTION     0.000    0.175     0  04:03           0         2.2       0.010
  Out_to_WWTP          OUTFALL      0.000    0.271     0  02:39           0        7.26       0.000
  T1                   STORAGE      0.000    0.708     0  04:11           0        9.98       4.431
  T2                   STORAGE      0.000    0.295     0  02:56           0        3.29      38.859
  T3                   STORAGE      0.000    0.557     0  02:46           0        5.65      27.307
  T4                   STORAGE      0.000    0.142     0  03:01           0        1.74      22.447
  T5                   STORAGE      0.000    0.144     0  02:36           0        1.81      22.014
  T6                   STORAGE      0.000    0.341     0  02:52           0        3.53      26.324
  
  
  **********************
  Node Surcharge Summary
  **********************
  
  No nodes were surcharged.
  
  
  *********************
  Node Flooding Summary
  *********************
  
  Flooding refers to all water that overflows a node, whether it ponds or not.
  --------------------------------------------------------------------------
                                                             Total   Maximum
                                 Maximum   Time of Max       Flood    Ponded
                        Hours       Rate    Occurrence      Volume     Depth
  Node                 Flooded       CMS   days hr:min    10^6 ltr    Meters
  --------------------------------------------------------------------------
  T1                      2.44     0.437      0  04:11       1.959     0.000
  T2                      0.40     0.061      0  03:53       0.059     0.000
  T4                      1.67     0.100      0  03:20       0.290     0.000
  T5                      0.76     0.070      0  04:10       0.119     0.000
  T6                      0.38     0.064      0  04:03       0.054     0.000
  
  
  **********************
  Storage Volume Summary
  **********************
  
  --------------------------------------------------------------------------------------------------
                         Average     Avg  Evap Exfil       Maximum     Max    Time of Max    Maximum
                          Volume    Pcnt  Pcnt  Pcnt        Volume    Pcnt     Occurrence    Outflow
  Storage Unit           1000 m3    Full  Loss  Loss       1000 m3    Full    days hr:min        CMS
  --------------------------------------------------------------------------------------------------
  T1                       0.522      75     0     0         0.700     100       0  02:37      0.271
  T2                       0.761      76     0     0         1.000     100       0  03:53      0.140
  T3                       1.424      55     0     0         2.276      88       0  05:26      0.176
  T4                       0.376      75     0     0         0.500     100       0  03:15      0.080
  T5                       0.351      70     0     0         0.500     100       0  03:56      0.039
  T6                       0.394      66     0     0         0.600     100       0  04:03      0.175
  
  
  ***********************
  Outfall Loading Summary
  ***********************
  
  -----------------------------------------------------------
                         Flow       Avg       Max       Total
                         Freq      Flow      Flow      Volume
  Outfall Node           Pcnt       CMS       CMS    10^6 ltr
  -----------------------------------------------------------
  Out_to_WWTP           99.13     0.224     0.271       7.257
  -----------------------------------------------------------
  System                99.13     0.224     0.271       7.257
  
  
  ********************
  Link Flow Summary
  ********************
  
  -----------------------------------------------------------------------------
                                 Maximum  Time of Max   Maximum    Max/    Max/
                                  |Flow|   Occurrence   |Veloc|    Full    Full
  Link                 Type          CMS  days hr:min     m/sec    Flow   Depth
  -----------------------------------------------------------------------------
  C1                   CONDUIT     0.039     0  04:36      1.11    0.01    0.12
  C10                  CONDUIT     0.341     0  02:52      1.59    0.04    0.56
  C11                  CONDUIT     0.276     0  04:10      2.01    0.01    0.11
  C12                  CONDUIT     0.175     0  04:25      1.31    0.01    0.13
  C13                  CONDUIT     0.557     0  02:46      1.45    0.03    0.59
  C14                  CONDUIT     0.271     0  02:39      2.08    0.02    0.09
  C15                  CONDUIT     0.269     0  02:40      2.61    0.85    0.61
  C16                  CONDUIT     0.262     0  02:43      1.45    0.03    0.11
  C17                  CONDUIT     0.457     0  02:43      2.34    0.02    0.11
  C18                  CONDUIT     0.295     0  02:56      4.72    0.01    0.54
  C19                  CONDUIT     0.140     0  04:18      1.50    0.05    0.22
  C2                   CONDUIT     0.080     0  04:10      1.93    0.09    0.24
  C20                  CONDUIT     0.293     0  02:36      3.71    0.01    0.10
  C21                  CONDUIT     0.099     0  02:35      1.61    0.57    0.42
  C22                  CONDUIT     0.098     0  02:38      1.18    0.04    0.24
  C23                  CONDUIT     0.708     0  04:11      1.45    0.08    0.59
  C3                   CONDUIT     0.178     0  06:23      2.21    0.07    0.17
  C4                   CONDUIT     0.144     0  02:36      4.05    0.03    0.56
  C5                   CONDUIT     0.061     0  03:00      1.23    1.04    0.93
  C6                   CONDUIT     0.059     0  03:03      1.26    0.94    0.65
  C7                   CONDUIT     0.142     0  03:01      1.38    0.03    0.56
  C8                   CONDUIT     0.066     0  02:50      1.29    0.83    0.61
  C9                   CONDUIT     0.064     0  02:53      1.04    0.22    0.35
  V1                   ORIFICE     0.271     0  02:37                      1.00
  V2                   ORIFICE     0.140     0  03:54                      1.00
  V3                   ORIFICE     0.176     0  06:20                      1.00
  V4                   ORIFICE     0.080     0  03:30                      1.00
  V5                   ORIFICE     0.039     0  03:56                      1.00
  V6                   ORIFICE     0.175     0  04:03                      1.00
  
  
  ***************************
  Flow Classification Summary
  ***************************
  
  -------------------------------------------------------------------------------------
                      Adjusted    ---------- Fraction of Time in Flow Class ---------- 
                       /Actual         Up    Down  Sub   Sup   Up    Down  Norm  Inlet 
  Conduit               Length    Dry  Dry   Dry   Crit  Crit  Crit  Crit  Ltd   Ctrl  
  -------------------------------------------------------------------------------------
  C1                      1.00   0.00  0.00  0.00  0.10  0.90  0.00  0.00  0.96  0.00
  C10                     1.00   0.00  0.00  0.00  0.97  0.03  0.00  0.00  0.98  0.00
  C11                     1.00   0.00  0.00  0.00  0.48  0.52  0.00  0.00  1.00  0.00
  C12                     1.00   0.00  0.00  0.00  0.92  0.07  0.00  0.00  1.00  0.00
  C13                     1.00   0.00  0.00  0.00  0.85  0.15  0.00  0.00  0.36  0.00
  C14                     1.00   0.01  0.00  0.00  0.01  0.99  0.00  0.00  0.34  0.00
  C15                     1.00   0.04  0.00  0.00  0.00  0.96  0.00  0.00  0.00  0.00
  C16                     1.00   0.00  0.04  0.00  0.25  0.71  0.00  0.00  0.16  0.00
  C17                     1.00   0.00  0.00  0.00  0.44  0.56  0.00  0.00  0.98  0.00
  C18                     1.00   0.00  0.00  0.00  0.93  0.07  0.00  0.00  0.97  0.00
  C19                     1.00   0.00  0.00  0.00  0.87  0.13  0.00  0.00  1.00  0.00
  C2                      1.00   0.00  0.00  0.00  0.46  0.53  0.00  0.00  0.96  0.00
  C20                     1.00   0.00  0.00  0.00  0.45  0.55  0.00  0.00  0.98  0.00
  C21                     1.00   0.00  0.00  0.00  0.00  1.00  0.00  0.00  0.00  0.00
  C22                     1.00   0.00  0.00  0.00  0.85  0.15  0.00  0.00  1.00  0.00
  C23                     1.00   0.00  0.00  0.00  0.93  0.07  0.00  0.00  0.95  0.00
  C3                      1.00   0.00  0.00  0.00  0.06  0.93  0.00  0.00  0.68  0.00
  C4                      1.00   0.00  0.00  0.00  0.96  0.04  0.00  0.00  0.98  0.00
  C5                      1.00   0.00  0.00  0.00  0.90  0.10  0.00  0.00  0.98  0.00
  C6                      1.00   0.00  0.00  0.00  0.04  0.96  0.00  0.00  0.00  0.00
  C7                      1.00   0.00  0.00  0.00  0.94  0.06  0.00  0.00  0.97  0.00
  C8                      1.00   0.00  0.00  0.00  0.13  0.87  0.00  0.00  0.00  0.00
  C9                      1.00   0.00  0.00  0.00  1.00  0.00  0.00  0.00  1.00  0.00
  
  
  *************************
  Conduit Surcharge Summary
  *************************
  
  ----------------------------------------------------------------------------
                                                           Hours        Hours 
                         --------- Hours Full --------   Above Full   Capacity
  Conduit                Both Ends  Upstream  Dnstream   Normal Flow   Limited
  ----------------------------------------------------------------------------
  C10                         0.01      0.01      6.74      0.01         0.01
  C13                         0.01      0.01      6.23      0.01         0.01
  C18                         0.01      0.01      7.53      0.01         0.01
  C23                         0.01      0.01      8.00      0.01         0.01
  C4                          0.01      0.01      8.12      0.01         0.01
  C5                          0.01      0.01      0.13      0.16         0.01
  C7                          0.01      0.01      7.99      0.01         0.01
  

  Analysis begun on:  Sun Jul 17 20:42:30 2022
  Analysis ended on:  Sun Jul 17 20:42:31 2022
  Total elapsed time: 00:00:01