
  EPA STORM WATER MANAGEMENT MODEL - VERSION 5.1 (Build 5.3.0.dev0)
  --------------------------------------------------------------

  
  *********************************************************
  NOTE: The summary statistics displayed in this report are
  based on results found at every computational time step,  
  not just on results from each reporting time step.
  *********************************************************
  
  ****************
  Analysis Options
  ****************
  Flow Units ............... CMS
  Process Models:
    Rainfall/Runoff ........ YES
    RDII ................... NO
    Snowmelt ............... NO
    Groundwater ............ NO
    Flow Routing ........... YES
    Ponding Allowed ........ NO
    Water Quality .......... NO
  Infiltration Method ...... HORTON
  Flow Routing Method ...... DYNWAVE
  Surcharge Method ......... EXTRAN
  Starting Date ............ 08/29/2008 18:40:00
  Ending Date .............. 08/30/2008 01:00:00
  Antecedent Dry Days ...... 0.0
  Report Time Step ......... 00:05:00
  Wet Time Step ............ 00:05:00
  Dry Time Step ............ 01:00:00
  Routing Time Step ........ 30.00 sec
  Variable Time Step ....... YES
  Maximum Trials ........... 8
  Number of Threads ........ 1
  Head Tolerance ........... 0.001500 m
  
  
  **************************        Volume         Depth
  Runoff Quantity Continuity     hectare-m            mm
  **************************     ---------       -------
  Total Precipitation ......         2.300        12.762
  Evaporation Loss .........         0.000         0.000
  Infiltration Loss ........         0.000         0.000
  Surface Runoff ...........         2.279        12.645
  Final Storage ............         0.041         0.230
  Continuity Error (%) .....        -0.886
  
  
  **************************        Volume        Volume
  Flow Routing Continuity        hectare-m      10^6 ltr
  **************************     ---------     ---------
  Dry Weather Inflow .......         0.118         1.182
  Wet Weather Inflow .......         2.279        22.794
  Groundwater Inflow .......         0.000         0.000
  RDII Inflow ..............         0.000         0.000
  External Inflow ..........         0.000         0.000
  External Outflow .........         0.441         4.413
  Flooding Loss ............         0.885         8.850
  Evaporation Loss .........         0.000         0.000
  Exfiltration Loss ........         0.000         0.000
  Initial Stored Volume ....         0.000         0.000
  Final Stored Volume ......         0.817         8.170
  Continuity Error (%) .....        10.606
  
  
  *************************
  Highest Continuity Errors
  *************************
  Node T5 (36.91%)
  Node T2 (27.90%)
  Node T4 (20.49%)
  Node T3 (16.82%)
  Node T6 (16.41%)
  
  
  ***************************
  Time-Step Critical Elements
  ***************************
  Link C15 (60.50%)
  
  
  ********************************
  Highest Flow Instability Indexes
  ********************************
  Link C13 (7)
  Link V3 (4)
  Link V6 (4)
  Link C3 (3)
  Link C12 (3)
  
  
  *************************
  Routing Time Step Summary
  *************************
  Minimum Time Step           :     0.34 sec
  Average Time Step           :    21.96 sec
  Maximum Time Step           :    30.00 sec
  Percent in Steady State     :     6.87
  Average Iterations per Step :     2.91
  Percent Not Converging      :     5.17
  
  
  ***************************
  Subcatchment Runoff Summary
  ***************************
  
  ------------------------------------------------------------------------------------------------------------------------------
                            Total      Total      Total      Total     Imperv       Perv      Total       Total     Peak  Runoff
                           Precip      Runon       Evap      Infil     Runoff     Runoff     Runoff      Runoff   Runoff   Coeff
  Subcatchment                 mm         mm         mm         mm         mm         mm         mm    10^6 ltr      CMS
  ------------------------------------------------------------------------------------------------------------------------------
  SC01                       8.19       0.00       0.00       0.00       8.09       0.00       8.09        2.67     0.84   0.988
  SC010                      8.19       0.00       0.00       0.00       8.02       0.00       8.02        0.94     0.26   0.979
  SC02                      13.55       0.00       0.00       0.00      13.54       0.00      13.54        3.08     1.11   0.999
  SC03                      20.17       0.00       0.00       0.00      20.44       0.00      20.44        3.68     2.06   1.013
  SC04                      13.55       0.00       0.00       0.00      13.27       0.00      13.27        0.92     0.24   0.979
  SC05                       8.19       0.00       0.00       0.00       8.07       0.00       8.07        1.26     0.38   0.986
  SC06                      10.43       0.00       0.00       0.00       9.98       0.00       9.98        3.25     0.61   0.957
  SC07                      13.55       0.00       0.00       0.00      13.27       0.00      13.27        0.63     0.17   0.979
  SC08                      20.17       0.00       0.00       0.00      20.20       0.00      20.20        5.66     2.68   1.002
  SC09                      10.43       0.00       0.00       0.00      10.21       0.00      10.21        0.70     0.15   0.978
  
  
  ******************
  Node Depth Summary
  ******************
  
  ---------------------------------------------------------------------------------
                                 Average  Maximum  Maximum  Time of Max    Reported
                                   Depth    Depth      HGL   Occurrence   Max Depth
  Node                 Type       Meters   Meters   Meters  days hr:min      Meters
  ---------------------------------------------------------------------------------
  CSO10                JUNCTION     0.22     1.00    31.00     0  03:10        1.00
  CSO7                 JUNCTION     0.42     1.20    35.20     0  01:03        1.20
  CSO8                 JUNCTION     0.76     2.00    34.00     0  00:52        2.00
  CSO9                 JUNCTION     0.41     2.00    42.00     0  03:02        2.00
  J1                   JUNCTION     0.09     0.21    34.21     0  03:15        0.21
  J10                  JUNCTION     0.17     0.48    29.48     0  01:05        0.47
  J11                  JUNCTION     0.17     0.30    31.30     0  01:22        0.30
  J12                  JUNCTION     0.61     1.06    27.06     0  03:12        1.03
  J13                  JUNCTION     0.10     0.28    29.28     0  01:15        0.28
  J14                  JUNCTION     0.14     0.19    20.19     0  03:52        0.19
  J15                  JUNCTION     0.20     0.38    15.38     0  03:18        0.38
  J16                  JUNCTION     0.09     0.22    30.22     0  03:15        0.22
  J17                  JUNCTION     0.06     0.14    20.14     0  02:55        0.14
  J18                  JUNCTION     0.07     0.16    29.16     0  03:25        0.16
  J19                  JUNCTION     0.14     0.17     8.17     0  03:19        0.17
  J2                   JUNCTION     0.06     0.08    25.08     0  04:30        0.08
  J3                   JUNCTION     0.12     0.16    18.16     0  02:55        0.16
  J4                   JUNCTION     0.28     1.05    34.05     0  02:59        0.75
  J5                   JUNCTION     0.09     0.19    32.19     0  01:15        0.19
  J6                   JUNCTION     0.06     0.11    25.11     0  03:00        0.11
  J7                   JUNCTION     0.12     0.23    39.23     0  03:25        0.23
  J8                   JUNCTION     0.15     0.28    36.28     0  03:20        0.28
  J9                   JUNCTION     0.10     0.16    29.16     0  04:25        0.16
  Out_to_WWTP          OUTFALL      0.14     0.17     6.17     0  05:05        0.17
  T1                   STORAGE      3.06     5.00    15.00     0  03:18        5.00
  T2                   STORAGE      3.57     5.00    26.00     0  03:08        5.00
  T3                   STORAGE      3.75     5.00    27.00     0  03:09        5.00
  T4                   STORAGE      3.28     5.00    32.00     0  03:23        5.00
  T5                   STORAGE      2.26     4.38    31.38     0  04:28        4.38
  T6                   STORAGE      3.06     5.00    36.00     0  03:19        5.00
  
  
  *******************
  Node Inflow Summary
  *******************
  
  -------------------------------------------------------------------------------------------------
                                  Maximum  Maximum                  Lateral       Total        Flow
                                  Lateral    Total  Time of Max      Inflow      Inflow     Balance
                                   Inflow   Inflow   Occurrence      Volume      Volume       Error
  Node                 Type           CMS      CMS  days hr:min    10^6 ltr    10^6 ltr     Percent
  -------------------------------------------------------------------------------------------------
  CSO10                JUNCTION     0.262    0.262     0  03:15       0.989       0.993      -0.817
  CSO7                 JUNCTION     0.177    0.177     0  01:15       0.725       0.726      -0.251
  CSO8                 JUNCTION     2.676    2.676     0  01:05        5.65        5.66      -0.158
  CSO9                 JUNCTION     0.157    0.157     0  03:05       0.768        0.77      -0.301
  J1                   JUNCTION     0.393    0.393     0  03:15        1.44        1.45      -1.180
  J10                  JUNCTION     2.070    2.555     0  01:05         3.8        7.26      -0.904
  J11                  JUNCTION     0.000    0.487     0  01:21           0        3.42      -0.970
  J12                  JUNCTION     0.000    2.550     0  01:05           0        8.97      11.567
  J13                  JUNCTION     1.125    1.125     0  01:15        3.24        3.24      -1.034
  J14                  JUNCTION     0.000    0.190     0  03:10           0        2.45      -0.068
  J15                  JUNCTION     0.000    1.315     0  03:15           0        7.84      -0.276
  J16                  JUNCTION     0.851    0.851     0  03:15        2.85        2.86      -1.249
  J17                  JUNCTION     0.000    0.140     0  04:20           0       0.462       0.568
  J18                  JUNCTION     0.000    0.202     0  03:25           0       0.971      -1.477
  J19                  JUNCTION     0.000    0.271     0  03:18           0        4.43       0.272
  J2                   JUNCTION     0.000    0.037     0  04:28           0       0.565       1.020
  J3                   JUNCTION     0.000    0.268     0  02:55           0         3.5       0.059
  J4                   JUNCTION     0.000    0.085     0  01:06           0       0.626      -1.005
  J5                   JUNCTION     0.248    0.321     0  01:15       0.958        1.59      -0.570
  J6                   JUNCTION     0.000    0.068     0  03:00           0       0.486       0.087
  J7                   JUNCTION     0.000    0.127     0  03:25           0       0.742      -1.399
  J8                   JUNCTION     0.622    0.749     0  03:20        3.55        4.31      -0.824
  J9                   JUNCTION     0.000    0.175     0  03:28           0        1.74       5.458
  Out_to_WWTP          OUTFALL      0.000    0.271     0  03:19           0        4.41       0.000
  T1                   STORAGE      0.000    1.251     0  03:18           0        7.86      10.178
  T2                   STORAGE      0.000    1.117     0  01:15           0        3.28      38.690
  T3                   STORAGE      0.000    2.470     0  01:06           0        8.04      20.217
  T4                   STORAGE      0.000    0.317     0  01:15           0         1.6      25.767
  T5                   STORAGE      0.000    0.388     0  03:15           0        1.47      58.492
  T6                   STORAGE      0.000    0.746     0  03:20           0        4.35      19.633
  
  
  **********************
  Node Surcharge Summary
  **********************
  
  Surcharging occurs when water rises above the top of the highest conduit.
  ---------------------------------------------------------------------
                                               Max. Height   Min. Depth
                                   Hours       Above Crown    Below Rim
  Node                 Type      Surcharged         Meters       Meters
  ---------------------------------------------------------------------
  CSO10                JUNCTION        0.45          0.560        0.000
  CSO7                 JUNCTION        1.31          0.945        0.000
  CSO8                 JUNCTION        1.42          1.547        0.000
  CSO9                 JUNCTION        0.85          1.682        0.000
  J4                   JUNCTION        1.26          0.746        0.954
  
  
  *********************
  Node Flooding Summary
  *********************
  
  Flooding refers to all water that overflows a node, whether it ponds or not.
  --------------------------------------------------------------------------
                                                             Total   Maximum
                                 Maximum   Time of Max       Flood    Ponded
                        Hours       Rate    Occurrence      Volume     Depth
  Node                 Flooded       CMS   days hr:min    10^6 ltr    Meters
  --------------------------------------------------------------------------
  CSO10                   0.29     0.059      0  03:15       0.030     0.000
  CSO7                    1.02     0.103      0  01:15       0.102     0.000
  CSO8                    1.19     2.178      0  01:05       2.255     0.000
  CSO9                    0.43     0.031      0  03:05       0.031     0.000
  T1                      1.60     0.980      0  03:18       2.093     0.000
  T2                      1.19     0.416      0  03:08       0.925     0.000
  T3                      1.23     1.138      0  03:15       1.686     0.000
  T4                      1.29     0.161      0  03:23       0.335     0.000
  T6                      1.70     0.716      0  03:20       1.381     0.000
  
  
  **********************
  Storage Volume Summary
  **********************
  
  --------------------------------------------------------------------------------------------------
                         Average     Avg  Evap Exfil       Maximum     Max    Time of Max    Maximum
                          Volume    Pcnt  Pcnt  Pcnt        Volume    Pcnt     Occurrence    Outflow
  Storage Unit           1000 m3    Full  Loss  Loss       1000 m3    Full    days hr:min        CMS
  --------------------------------------------------------------------------------------------------
  T1                       0.429      61     0     0         0.700     100       0  03:18      0.271
  T2                       0.713      71     0     0         1.000     100       0  03:08      0.140
  T3                       1.949      75     0     0         2.600     100       0  03:09      0.190
  T4                       0.328      66     0     0         0.500     100       0  03:23      0.068
  T5                       0.226      45     0     0         0.438      88       0  04:28      0.037
  T6                       0.367      61     0     0         0.600     100       0  03:19      0.175
  
  
  ***********************
  Outfall Loading Summary
  ***********************
  
  -----------------------------------------------------------
                         Flow       Avg       Max       Total
                         Freq      Flow      Flow      Volume
  Outfall Node           Pcnt       CMS       CMS    10^6 ltr
  -----------------------------------------------------------
  Out_to_WWTP           98.95     0.192     0.271       4.413
  -----------------------------------------------------------
  System                98.95     0.192     0.271       4.413
  
  
  ********************
  Link Flow Summary
  ********************
  
  -----------------------------------------------------------------------------
                                 Maximum  Time of Max   Maximum    Max/    Max/
                                  |Flow|   Occurrence   |Veloc|    Full    Full
  Link                 Type          CMS  days hr:min     m/sec    Flow   Depth
  -----------------------------------------------------------------------------
  C1                   CONDUIT     0.037     0  04:30      0.91    0.01    0.12
  C10                  CONDUIT     0.746     0  03:20      1.59    0.08    0.59
  C11                  CONDUIT     0.257     0  02:55      2.05    0.01    0.13
  C12                  CONDUIT     0.175     0  04:25      1.14    0.01    0.29
  C13                  CONDUIT     2.470     0  01:06      3.70    0.14    0.76
  C14                  CONDUIT     0.271     0  03:19      2.08    0.02    0.09
  C15                  CONDUIT     0.487     0  01:21      3.91    1.55    0.83
  C16                  CONDUIT     0.486     0  03:10      1.86    0.05    0.19
  C17                  CONDUIT     2.496     0  01:05      4.15    0.12    0.34
  C18                  CONDUIT     1.117     0  01:15      4.72    0.04    0.57
  C19                  CONDUIT     0.121     0  02:55      1.27    0.04    0.23
  C2                   CONDUIT     0.068     0  03:00      1.68    0.08    0.22
  C20                  CONDUIT     0.841     0  03:15      3.71    0.03    0.15
  C21                  CONDUIT     0.202     0  03:25      1.85    1.16    0.69
  C22                  CONDUIT     0.202     0  03:28      1.47    0.09    0.34
  C23                  CONDUIT     1.251     0  03:18      1.49    0.14    0.63
  C3                   CONDUIT     0.192     0  03:53      2.26    0.07    0.17
  C4                   CONDUIT     0.388     0  03:15      4.05    0.09    0.60
  C5                   CONDUIT     0.085     0  01:06      1.70    1.46    1.00
  C6                   CONDUIT     0.073     0  01:15      1.29    1.16    0.81
  C7                   CONDUIT     0.317     0  01:15      1.38    0.08    0.59
  C8                   CONDUIT     0.127     0  03:25      1.79    1.60    0.86
  C9                   CONDUIT     0.127     0  03:28      1.28    0.43    0.51
  V1                   ORIFICE     0.271     0  03:18                      1.00
  V2                   ORIFICE     0.140     0  04:20                      1.00
  V3                   ORIFICE     0.190     0  03:10                      1.00
  V4                   ORIFICE     0.068     0  03:00                      1.00
  V5                   ORIFICE     0.037     0  04:28                      1.00
  V6                   ORIFICE     0.175     0  03:28                      1.00
  
  
  ***************************
  Flow Classification Summary
  ***************************
  
  -------------------------------------------------------------------------------------
                      Adjusted    ---------- Fraction of Time in Flow Class ---------- 
                       /Actual         Up    Down  Sub   Sup   Up    Down  Norm  Inlet 
  Conduit               Length    Dry  Dry   Dry   Crit  Crit  Crit  Crit  Ltd   Ctrl  
  -------------------------------------------------------------------------------------
  C1                      1.00   0.00  0.00  0.00  0.79  0.21  0.00  0.00  0.93  0.00
  C10                     1.00   0.00  0.00  0.00  0.95  0.05  0.00  0.00  0.97  0.00
  C11                     1.00   0.00  0.00  0.00  0.34  0.65  0.00  0.00  1.00  0.00
  C12                     1.00   0.00  0.00  0.00  0.94  0.05  0.00  0.00  1.00  0.00
  C13                     1.00   0.00  0.00  0.00  0.85  0.15  0.00  0.00  0.19  0.00
  C14                     1.00   0.01  0.00  0.00  0.01  0.98  0.00  0.00  0.35  0.00
  C15                     1.00   0.02  0.00  0.00  0.01  0.97  0.00  0.00  0.00  0.00
  C16                     1.00   0.00  0.03  0.00  0.23  0.74  0.00  0.00  0.22  0.00
  C17                     1.00   0.00  0.00  0.00  0.59  0.41  0.00  0.00  0.93  0.00
  C18                     1.00   0.00  0.00  0.00  0.85  0.15  0.00  0.00  0.96  0.00
  C19                     1.00   0.00  0.00  0.00  0.96  0.04  0.00  0.00  1.00  0.00
  C2                      1.00   0.00  0.00  0.00  0.69  0.30  0.00  0.00  0.97  0.00
  C20                     1.00   0.00  0.00  0.00  0.41  0.59  0.00  0.00  0.98  0.00
  C21                     1.00   0.00  0.00  0.00  0.02  0.98  0.00  0.00  0.00  0.00
  C22                     1.00   0.00  0.00  0.00  0.78  0.22  0.00  0.00  1.00  0.00
  C23                     1.00   0.00  0.00  0.00  0.83  0.17  0.00  0.00  0.93  0.00
  C3                      1.00   0.00  0.00  0.00  0.06  0.93  0.00  0.00  0.23  0.00
  C4                      1.00   0.00  0.00  0.00  0.95  0.05  0.00  0.00  0.97  0.00
  C5                      1.00   0.00  0.00  0.00  0.90  0.10  0.00  0.00  0.73  0.00
  C6                      1.00   0.00  0.00  0.00  0.39  0.61  0.00  0.00  0.00  0.00
  C7                      1.00   0.00  0.00  0.00  0.92  0.08  0.00  0.00  0.96  0.00
  C8                      1.00   0.00  0.00  0.00  0.29  0.71  0.00  0.00  0.00  0.00
  C9                      1.00   0.00  0.00  0.00  0.95  0.05  0.00  0.00  1.00  0.00
  
  
  *************************
  Conduit Surcharge Summary
  *************************
  
  ----------------------------------------------------------------------------
                                                           Hours        Hours 
                         --------- Hours Full --------   Above Full   Capacity
  Conduit                Both Ends  Upstream  Dnstream   Normal Flow   Limited
  ----------------------------------------------------------------------------
  C10                         0.01      0.01      5.04      0.01         0.01
  C13                         0.01      0.01      5.17      0.01         0.01
  C15                         0.01      1.42      0.01      1.47         0.01
  C18                         0.01      0.01      5.06      0.01         0.01
  C21                         0.01      0.45      0.01      0.40         0.01
  C23                         0.01      0.01      4.88      0.01         0.01
  C4                          0.01      0.01      4.88      0.01         0.01
  C5                          1.22      1.31      1.49      1.31         1.17
  C6                          0.01      1.26      0.01      1.06         0.01
  C7                          0.01      0.01      5.08      0.01         0.01
  C8                          0.01      0.85      0.01      0.90         0.01
  

  Analysis begun on:  Sun Jul 17 20:56:39 2022
  Analysis ended on:  Sun Jul 17 20:56:39 2022
  Total elapsed time: < 1 sec