
  EPA STORM WATER MANAGEMENT MODEL - VERSION 5.1 (Build 5.3.0.dev0)
  --------------------------------------------------------------

  
  *********************************************************
  NOTE: The summary statistics displayed in this report are
  based on results found at every computational time step,  
  not just on results from each reporting time step.
  *********************************************************
  
  ****************
  Analysis Options
  ****************
  Flow Units ............... CMS
  Process Models:
    Rainfall/Runoff ........ YES
    RDII ................... NO
    Snowmelt ............... NO
    Groundwater ............ NO
    Flow Routing ........... YES
    Ponding Allowed ........ NO
    Water Quality .......... NO
  Infiltration Method ...... HORTON
  Flow Routing Method ...... DYNWAVE
  Surcharge Method ......... EXTRAN
  Starting Date ............ 04/27/2007 11:35:00
  Ending Date .............. 04/28/2007 19:50:00
  Antecedent Dry Days ...... 0.0
  Report Time Step ......... 00:05:00
  Wet Time Step ............ 00:05:00
  Dry Time Step ............ 01:00:00
  Routing Time Step ........ 30.00 sec
  Variable Time Step ....... YES
  Maximum Trials ........... 8
  Number of Threads ........ 1
  Head Tolerance ........... 0.001500 m
  
  
  **************************        Volume         Depth
  Runoff Quantity Continuity     hectare-m            mm
  **************************     ---------       -------
  Total Precipitation ......         1.058         5.871
  Evaporation Loss .........         0.000         0.000
  Infiltration Loss ........         0.000         0.000
  Surface Runoff ...........         1.039         5.767
  Final Storage ............         0.020         0.110
  Continuity Error (%) .....        -0.105
  
  
  **************************        Volume        Volume
  Flow Routing Continuity        hectare-m      10^6 ltr
  **************************     ---------     ---------
  Dry Weather Inflow .......         1.125        11.246
  Wet Weather Inflow .......         1.039        10.391
  Groundwater Inflow .......         0.000         0.000
  RDII Inflow ..............         0.000         0.000
  External Inflow ..........         0.000         0.000
  External Outflow .........         1.616        16.159
  Flooding Loss ............         0.000         0.000
  Evaporation Loss .........         0.000         0.000
  Exfiltration Loss ........         0.000         0.000
  Initial Stored Volume ....         0.000         0.000
  Final Stored Volume ......         0.460         4.601
  Continuity Error (%) .....         4.052
  
  
  *************************
  Highest Continuity Errors
  *************************
  Node T2 (17.57%)
  Node T6 (11.98%)
  Node T3 (8.31%)
  Node T4 (7.87%)
  Node T5 (7.53%)
  
  
  ***************************
  Time-Step Critical Elements
  ***************************
  Link C15 (12.13%)
  
  
  ********************************
  Highest Flow Instability Indexes
  ********************************
  Link C15 (4)
  Link C23 (4)
  Link C11 (3)
  Link C3 (2)
  Link C19 (2)
  
  
  *************************
  Routing Time Step Summary
  *************************
  Minimum Time Step           :     0.01 sec
  Average Time Step           :    29.50 sec
  Maximum Time Step           :    30.00 sec
  Percent in Steady State     :     9.13
  Average Iterations per Step :     2.04
  Percent Not Converging      :     0.00
  
  
  ***************************
  Subcatchment Runoff Summary
  ***************************
  
  ------------------------------------------------------------------------------------------------------------------------------
                            Total      Total      Total      Total     Imperv       Perv      Total       Total     Peak  Runoff
                           Precip      Runon       Evap      Infil     Runoff     Runoff     Runoff      Runoff   Runoff   Coeff
  Subcatchment                 mm         mm         mm         mm         mm         mm         mm    10^6 ltr      CMS
  ------------------------------------------------------------------------------------------------------------------------------
  SC01                       2.89       0.00       0.00       0.00       2.81       0.00       2.81        0.93     0.05   0.974
  SC010                      2.89       0.00       0.00       0.00       2.80       0.00       2.80        0.33     0.02   0.968
  SC02                       2.28       0.00       0.00       0.00       2.21       0.00       2.21        0.50     0.03   0.967
  SC03                       9.57       0.00       0.00       0.00       9.51       0.00       9.51        1.71     0.06   0.993
  SC04                       2.28       0.00       0.00       0.00       2.16       0.00       2.16        0.15     0.01   0.947
  SC05                       2.89       0.00       0.00       0.00       2.81       0.00       2.81        0.44     0.03   0.972
  SC06                       9.25       0.00       0.00       0.00       9.07       0.00       9.07        2.95     0.22   0.980
  SC07                       2.28       0.00       0.00       0.00       2.16       0.00       2.16        0.10     0.00   0.947
  SC08                       9.57       0.00       0.00       0.00       9.46       0.00       9.46        2.65     0.08   0.989
  SC09                       9.25       0.00       0.00       0.00       9.14       0.00       9.14        0.63     0.07   0.988
  
  
  ******************
  Node Depth Summary
  ******************
  
  ---------------------------------------------------------------------------------
                                 Average  Maximum  Maximum  Time of Max    Reported
                                   Depth    Depth      HGL   Occurrence   Max Depth
  Node                 Type       Meters   Meters   Meters  days hr:min      Meters
  ---------------------------------------------------------------------------------
  CSO10                JUNCTION     0.06     0.12    30.12     0  22:16        0.11
  CSO7                 JUNCTION     0.06     0.09    34.09     0  00:02        0.09
  CSO8                 JUNCTION     0.09     0.16    32.16     0  12:05        0.16
  CSO9                 JUNCTION     0.08     0.26    40.26     0  23:41        0.25
  J1                   JUNCTION     0.05     0.07    34.07     0  22:17        0.07
  J10                  JUNCTION     0.07     0.12    29.12     0  12:06        0.12
  J11                  JUNCTION     0.07     0.12    31.12     0  12:07        0.12
  J12                  JUNCTION     0.11     0.16    26.16     0  06:22        0.16
  J13                  JUNCTION     0.04     0.06    29.06     0  22:05        0.06
  J14                  JUNCTION     0.12     0.17    20.17     1  04:02        0.17
  J15                  JUNCTION     0.13     0.17    15.17     0  22:16        0.17
  J16                  JUNCTION     0.04     0.07    30.07     0  22:17        0.07
  J17                  JUNCTION     0.04     0.09    20.09     0  11:43        0.09
  J18                  JUNCTION     0.03     0.06    29.06     0  22:20        0.06
  J19                  JUNCTION     0.12     0.15     8.15     0  22:42        0.15
  J2                   JUNCTION     0.05     0.06    25.06     1  03:02        0.06
  J3                   JUNCTION     0.10     0.13    18.13     1  04:05        0.13
  J4                   JUNCTION     0.08     0.11    33.11     1  01:25        0.11
  J5                   JUNCTION     0.04     0.06    32.06     0  22:08        0.06
  J6                   JUNCTION     0.05     0.07    25.07     0  11:55        0.07
  J7                   JUNCTION     0.06     0.16    39.16     0  23:47        0.16
  J8                   JUNCTION     0.08     0.18    36.18     0  23:46        0.18
  J9                   JUNCTION     0.09     0.14    29.14     0  10:12        0.14
  Out_to_WWTP          OUTFALL      0.12     0.15     6.15     0  22:43        0.15
  T1                   STORAGE      1.44     2.57    12.57     0  22:42        2.57
  T2                   STORAGE      0.66     1.38    22.38     1  08:15        1.38
  T3                   STORAGE      1.92     3.33    25.33     1  06:39        3.33
  T4                   STORAGE      0.60     1.08    28.08     1  04:19        1.08
  T5                   STORAGE      0.84     1.61    28.61     1  03:00        1.61
  T6                   STORAGE      1.98     4.88    35.88     1  08:15        4.88
  
  
  *******************
  Node Inflow Summary
  *******************
  
  -------------------------------------------------------------------------------------------------
                                  Maximum  Maximum                  Lateral       Total        Flow
                                  Lateral    Total  Time of Max      Inflow      Inflow     Balance
                                   Inflow   Inflow   Occurrence      Volume      Volume       Error
  Node                 Type           CMS      CMS  days hr:min    10^6 ltr    10^6 ltr     Percent
  -------------------------------------------------------------------------------------------------
  CSO10                JUNCTION     0.022    0.022     0  22:15       0.729       0.732      -0.021
  CSO7                 JUNCTION     0.014    0.014     0  22:30        0.94        0.94       0.007
  CSO8                 JUNCTION     0.077    0.077     0  12:05        3.34        3.35      -0.014
  CSO9                 JUNCTION     0.074    0.074     0  23:40         1.2         1.2      -0.009
  J1                   JUNCTION     0.043    0.043     0  22:15        2.06        2.06      -0.081
  J10                  JUNCTION     0.061    0.132     0  22:10        2.82        6.19      -0.084
  J11                  JUNCTION     0.000    0.077     0  12:05           0        3.35      -0.250
  J12                  JUNCTION     0.000    0.210     0  06:20           0        11.7      -0.025
  J13                  JUNCTION     0.045    0.045     0  22:05        1.85        1.85      -0.019
  J14                  JUNCTION     0.000    0.151     1  04:00           0        8.99       0.068
  J15                  JUNCTION     0.000    0.276     0  22:15           0        16.5       0.304
  J16                  JUNCTION     0.072    0.072     0  22:15        2.53        2.53      -0.064
  J17                  JUNCTION     0.000    0.050     0  11:20           0        1.25       0.357
  J18                  JUNCTION     0.000    0.022     0  22:16           0       0.732      -0.141
  J19                  JUNCTION     0.000    0.193     0  22:42           0        16.2       0.041
  J2                   JUNCTION     0.000    0.022     1  03:00           0        1.78       0.197
  J3                   JUNCTION     0.000    0.188     1  04:03           0          12       0.047
  J4                   JUNCTION     0.000    0.014     0  22:30           0        0.94       0.559
  J5                   JUNCTION     0.011    0.025     0  22:05       0.517        1.45       0.139
  J6                   JUNCTION     0.000    0.028     0  11:50           0        1.24       0.219
  J7                   JUNCTION     0.000    0.073     0  23:42           0         1.2       0.095
  J8                   JUNCTION     0.254    0.319     0  23:45        5.66        6.87      -0.053
  J9                   JUNCTION     0.000    0.134     0  09:45           0        5.46      -0.112
  Out_to_WWTP          OUTFALL      0.000    0.193     0  22:43           0        16.2       0.000
  T1                   STORAGE      0.000    0.253     0  22:16           0        16.5       0.990
  T2                   STORAGE      0.000    0.044     0  22:06           0        1.85      21.308
  T3                   STORAGE      0.000    0.210     0  06:23           0        11.7       9.069
  T4                   STORAGE      0.000    0.025     0  22:08           0        1.45       8.545
  T5                   STORAGE      0.000    0.042     0  22:17           0        2.06       8.139
  T6                   STORAGE      0.000    0.315     0  23:46           0        6.87      13.616
  
  
  **********************
  Node Surcharge Summary
  **********************
  
  No nodes were surcharged.
  
  
  *********************
  Node Flooding Summary
  *********************
  
  No nodes were flooded.
  
  
  **********************
  Storage Volume Summary
  **********************
  
  --------------------------------------------------------------------------------------------------
                         Average     Avg  Evap Exfil       Maximum     Max    Time of Max    Maximum
                          Volume    Pcnt  Pcnt  Pcnt        Volume    Pcnt     Occurrence    Outflow
  Storage Unit           1000 m3    Full  Loss  Loss       1000 m3    Full    days hr:min        CMS
  --------------------------------------------------------------------------------------------------
  T1                       0.201      29     0     0         0.360      51       0  22:42      0.193
  T2                       0.132      13     0     0         0.276      28       1  08:15      0.050
  T3                       1.000      38     0     0         1.729      67       1  06:39      0.151
  T4                       0.060      12     0     0         0.108      22       1  04:19      0.028
  T5                       0.084      17     0     0         0.161      32       1  03:00      0.022
  T6                       0.238      40     0     0         0.585      98       1  08:15      0.134
  
  
  ***********************
  Outfall Loading Summary
  ***********************
  
  -----------------------------------------------------------
                         Flow       Avg       Max       Total
                         Freq      Flow      Flow      Volume
  Outfall Node           Pcnt       CMS       CMS    10^6 ltr
  -----------------------------------------------------------
  Out_to_WWTP           99.77     0.140     0.193      16.159
  -----------------------------------------------------------
  System                99.77     0.140     0.193      16.159
  
  
  ********************
  Link Flow Summary
  ********************
  
  -----------------------------------------------------------------------------
                                 Maximum  Time of Max   Maximum    Max/    Max/
                                  |Flow|   Occurrence   |Veloc|    Full    Full
  Link                 Type          CMS  days hr:min     m/sec    Flow   Depth
  -----------------------------------------------------------------------------
  C1                   CONDUIT     0.022     1  03:02      0.96    0.01    0.10
  C10                  CONDUIT     0.315     0  23:46      1.81    0.03    0.56
  C11                  CONDUIT     0.171     1  04:05      1.87    0.01    0.07
  C12                  CONDUIT     0.129     0  10:14      1.51    0.01    0.07
  C13                  CONDUIT     0.210     0  06:23      1.62    0.01    0.54
  C14                  CONDUIT     0.193     0  22:43      1.87    0.01    0.07
  C15                  CONDUIT     0.077     0  12:05      1.82    0.25    0.31
  C16                  CONDUIT     0.076     0  12:07      1.01    0.01    0.06
  C17                  CONDUIT     0.132     0  12:06      1.52    0.01    0.07
  C18                  CONDUIT     0.044     0  22:06      3.17    0.00    0.35
  C19                  CONDUIT     0.049     0  11:43      0.97    0.02    0.13
  C2                   CONDUIT     0.026     0  11:55      1.03    0.03    0.16
  C20                  CONDUIT     0.071     0  22:17      3.22    0.00    0.06
  C21                  CONDUIT     0.022     0  22:16      1.06    0.12    0.19
  C22                  CONDUIT     0.021     0  22:20      0.61    0.01    0.14
  C23                  CONDUIT     0.253     0  22:16      1.34    0.03    0.56
  C3                   CONDUIT     0.153     1  04:03      2.15    0.06    0.15
  C4                   CONDUIT     0.042     0  22:17      3.10    0.01    0.53
  C5                   CONDUIT     0.014     0  22:30      1.34    0.24    0.37
  C6                   CONDUIT     0.014     0  22:35      0.95    0.22    0.27
  C7                   CONDUIT     0.025     0  22:08      1.57    0.01    0.52
  C8                   CONDUIT     0.073     0  23:42      1.42    0.92    0.64
  C9                   CONDUIT     0.067     0  23:47      1.11    0.23    0.35
  V1                   ORIFICE     0.193     0  22:42                      1.00
  V2                   ORIFICE     0.050     0  11:20                      1.00
  V3                   ORIFICE     0.151     1  04:00                      1.00
  V4                   ORIFICE     0.028     0  11:50                      1.00
  V5                   ORIFICE     0.022     1  03:00                      1.00
  V6                   ORIFICE     0.134     0  09:45                      1.00
  
  
  ***************************
  Flow Classification Summary
  ***************************
  
  -------------------------------------------------------------------------------------
                      Adjusted    ---------- Fraction of Time in Flow Class ---------- 
                       /Actual         Up    Down  Sub   Sup   Up    Down  Norm  Inlet 
  Conduit               Length    Dry  Dry   Dry   Crit  Crit  Crit  Crit  Ltd   Ctrl  
  -------------------------------------------------------------------------------------
  C1                      1.00   0.00  0.00  0.00  0.71  0.29  0.00  0.00  0.99  0.00
  C10                     1.00   0.00  0.00  0.00  0.99  0.01  0.00  0.00  1.00  0.00
  C11                     1.00   0.00  0.00  0.00  0.02  0.98  0.00  0.00  1.00  0.00
  C12                     1.00   0.00  0.00  0.00  0.50  0.50  0.00  0.00  0.93  0.00
  C13                     1.00   0.00  0.00  0.00  0.97  0.03  0.00  0.00  0.98  0.00
  C14                     1.00   0.00  0.00  0.00  0.00  1.00  0.00  0.00  0.91  0.00
  C15                     1.00   0.00  0.00  0.00  0.00  1.00  0.00  0.00  0.01  0.00
  C16                     1.00   0.00  0.00  0.00  0.39  0.61  0.00  0.00  0.34  0.00
  C17                     1.00   0.00  0.00  0.00  0.16  0.84  0.00  0.00  0.99  0.00
  C18                     1.00   0.00  0.00  0.00  0.99  0.01  0.00  0.00  0.99  0.00
  C19                     1.00   0.00  0.00  0.00  0.98  0.02  0.00  0.00  1.00  0.00
  C2                      1.00   0.00  0.00  0.00  0.94  0.06  0.00  0.00  0.99  0.00
  C20                     1.00   0.00  0.00  0.00  0.94  0.06  0.00  0.00  1.00  0.00
  C21                     1.00   0.00  0.00  0.00  0.00  1.00  0.00  0.00  0.00  0.00
  C22                     1.00   0.00  0.00  0.00  0.99  0.01  0.00  0.00  1.00  0.00
  C23                     1.00   0.00  0.00  0.00  0.98  0.02  0.00  0.00  0.99  0.00
  C3                      1.00   0.00  0.00  0.00  0.01  0.99  0.00  0.00  0.11  0.00
  C4                      1.00   0.00  0.00  0.00  0.99  0.01  0.00  0.00  1.00  0.00
  C5                      1.00   0.00  0.00  0.00  0.97  0.03  0.00  0.00  1.00  0.00
  C6                      1.00   0.00  0.00  0.00  0.00  1.00  0.00  0.00  0.00  0.00
  C7                      1.00   0.00  0.00  0.00  0.99  0.01  0.00  0.00  0.99  0.00
  C8                      1.00   0.00  0.00  0.00  0.03  0.97  0.00  0.00  0.00  0.00
  C9                      1.00   0.00  0.00  0.00  1.00  0.00  0.00  0.00  1.00  0.00
  
  
  *************************
  Conduit Surcharge Summary
  *************************
  
  ----------------------------------------------------------------------------
                                                           Hours        Hours 
                         --------- Hours Full --------   Above Full   Capacity
  Conduit                Both Ends  Upstream  Dnstream   Normal Flow   Limited
  ----------------------------------------------------------------------------
  C10                         0.01      0.01     16.85      0.01         0.01
  C13                         0.01      0.01     10.30      0.01         0.01
  C23                         0.01      0.01     17.02      0.01         0.01
  C4                          0.01      0.01     12.08      0.01         0.01
  C7                          0.01      0.01      5.14      0.01         0.01
  

  Analysis begun on:  Sun Jul 17 19:52:43 2022
  Analysis ended on:  Sun Jul 17 19:52:47 2022
  Total elapsed time: 00:00:04