
  EPA STORM WATER MANAGEMENT MODEL - VERSION 5.1 (Build 5.3.0.dev0)
  --------------------------------------------------------------

  
  *********************************************************
  NOTE: The summary statistics displayed in this report are
  based on results found at every computational time step,  
  not just on results from each reporting time step.
  *********************************************************
  
  ****************
  Analysis Options
  ****************
  Flow Units ............... CMS
  Process Models:
    Rainfall/Runoff ........ YES
    RDII ................... NO
    Snowmelt ............... NO
    Groundwater ............ NO
    Flow Routing ........... YES
    Ponding Allowed ........ NO
    Water Quality .......... NO
  Infiltration Method ...... HORTON
  Flow Routing Method ...... DYNWAVE
  Surcharge Method ......... EXTRAN
  Starting Date ............ 08/22/2007 08:40:00
  Ending Date .............. 08/22/2007 15:15:00
  Antecedent Dry Days ...... 0.0
  Report Time Step ......... 00:05:00
  Wet Time Step ............ 00:05:00
  Dry Time Step ............ 01:00:00
  Routing Time Step ........ 30.00 sec
  Variable Time Step ....... YES
  Maximum Trials ........... 8
  Number of Threads ........ 1
  Head Tolerance ........... 0.001500 m
  
  
  **************************        Volume         Depth
  Runoff Quantity Continuity     hectare-m            mm
  **************************     ---------       -------
  Total Precipitation ......         0.941         5.219
  Evaporation Loss .........         0.000         0.000
  Infiltration Loss ........         0.000         0.000
  Surface Runoff ...........         0.898         4.981
  Final Storage ............         0.045         0.252
  Continuity Error (%) .....        -0.255
  
  
  **************************        Volume        Volume
  Flow Routing Continuity        hectare-m      10^6 ltr
  **************************     ---------     ---------
  Dry Weather Inflow .......         0.344         3.442
  Wet Weather Inflow .......         0.897         8.973
  Groundwater Inflow .......         0.000         0.000
  RDII Inflow ..............         0.000         0.000
  External Inflow ..........         0.000         0.000
  External Outflow .........         0.379         3.789
  Flooding Loss ............         0.003         0.026
  Evaporation Loss .........         0.000         0.000
  Exfiltration Loss ........         0.000         0.000
  Initial Stored Volume ....         0.000         0.000
  Final Stored Volume ......         0.656         6.560
  Continuity Error (%) .....        16.429
  
  
  *************************
  Highest Continuity Errors
  *************************
  Node T2 (36.53%)
  Node T5 (28.24%)
  Node T3 (25.02%)
  Node T6 (21.08%)
  Node T4 (19.21%)
  
  
  ***************************
  Time-Step Critical Elements
  ***************************
  Link C15 (49.56%)
  
  
  ********************************
  Highest Flow Instability Indexes
  ********************************
  Link V3 (4)
  Link C3 (3)
  Link C11 (3)
  Link C2 (3)
  Link C23 (3)
  
  
  *************************
  Routing Time Step Summary
  *************************
  Minimum Time Step           :     1.22 sec
  Average Time Step           :    25.96 sec
  Maximum Time Step           :    30.00 sec
  Percent in Steady State     :     2.41
  Average Iterations per Step :     2.50
  Percent Not Converging      :     3.37
  
  
  ***************************
  Subcatchment Runoff Summary
  ***************************
  
  ------------------------------------------------------------------------------------------------------------------------------
                            Total      Total      Total      Total     Imperv       Perv      Total       Total     Peak  Runoff
                           Precip      Runon       Evap      Infil     Runoff     Runoff     Runoff      Runoff   Runoff   Coeff
  Subcatchment                 mm         mm         mm         mm         mm         mm         mm    10^6 ltr      CMS
  ------------------------------------------------------------------------------------------------------------------------------
  SC01                       4.22       0.00       0.00       0.00       4.08       0.00       4.08        1.35     0.33   0.967
  SC010                      4.22       0.00       0.00       0.00       4.02       0.00       4.02        0.47     0.11   0.952
  SC02                       5.65       0.00       0.00       0.00       5.51       0.00       5.51        1.25     0.40   0.975
  SC03                       5.47       0.00       0.00       0.00       5.38       0.00       5.38        0.97     0.21   0.984
  SC04                       5.65       0.00       0.00       0.00       5.27       0.00       5.27        0.36     0.08   0.932
  SC05                       4.22       0.00       0.00       0.00       4.07       0.00       4.07        0.63     0.15   0.963
  SC06                       6.08       0.00       0.00       0.00       5.57       0.00       5.57        1.81     0.32   0.915
  SC07                       5.65       0.00       0.00       0.00       5.27       0.00       5.27        0.25     0.05   0.933
  SC08                       5.47       0.00       0.00       0.00       5.27       0.00       5.27        1.48     0.29   0.963
  SC09                       6.08       0.00       0.00       0.00       5.80       0.00       5.80        0.40     0.08   0.953
  
  
  ******************
  Node Depth Summary
  ******************
  
  ---------------------------------------------------------------------------------
                                 Average  Maximum  Maximum  Time of Max    Reported
                                   Depth    Depth      HGL   Occurrence   Max Depth
  Node                 Type       Meters   Meters   Meters  days hr:min      Meters
  ---------------------------------------------------------------------------------
  CSO10                JUNCTION     0.12     0.28    30.28     0  04:15        0.28
  CSO7                 JUNCTION     0.15     0.93    34.93     0  04:10        0.93
  CSO8                 JUNCTION     0.16     0.37    32.37     0  04:10        0.37
  CSO9                 JUNCTION     0.14     0.61    40.61     0  04:20        0.61
  J1                   JUNCTION     0.07     0.14    34.14     0  04:15        0.14
  J10                  JUNCTION     0.11     0.22    29.22     0  04:10        0.22
  J11                  JUNCTION     0.12     0.23    31.23     0  04:11        0.23
  J12                  JUNCTION     0.16     0.25    26.25     0  04:13        0.25
  J13                  JUNCTION     0.07     0.17    29.17     0  03:50        0.17
  J14                  JUNCTION     0.10     0.18    20.18     0  06:22        0.18
  J15                  JUNCTION     0.16     0.26    15.26     0  04:19        0.26
  J16                  JUNCTION     0.07     0.15    30.15     0  04:15        0.15
  J17                  JUNCTION     0.05     0.08    20.08     0  03:30        0.08
  J18                  JUNCTION     0.06     0.12    29.12     0  04:17        0.12
  J19                  JUNCTION     0.13     0.17     8.17     0  06:34        0.17
  J2                   JUNCTION     0.06     0.07    25.07     0  05:24        0.07
  J3                   JUNCTION     0.10     0.15    18.15     0  06:24        0.15
  J4                   JUNCTION     0.15     0.65    33.65     0  04:10        0.65
  J5                   JUNCTION     0.07     0.13    32.13     0  04:10        0.13
  J6                   JUNCTION     0.06     0.11    25.11     0  05:21        0.11
  J7                   JUNCTION     0.10     0.18    39.18     0  04:22        0.18
  J8                   JUNCTION     0.12     0.22    36.22     0  04:22        0.22
  J9                   JUNCTION     0.10     0.16    29.16     0  05:05        0.16
  Out_to_WWTP          OUTFALL      0.13     0.17     6.17     0  06:34        0.17
  T1                   STORAGE      2.20     4.67    14.67     0  06:34        4.66
  T2                   STORAGE      1.36     3.13    24.13     0  05:46        3.13
  T3                   STORAGE      1.94     4.22    26.22     0  06:23        4.21
  T4                   STORAGE      1.40     3.41    30.41     0  05:15        3.41
  T5                   STORAGE      1.65     3.32    30.32     0  05:22        3.32
  T6                   STORAGE      2.25     5.00    36.00     0  04:50        5.00
  
  
  *******************
  Node Inflow Summary
  *******************
  
  -------------------------------------------------------------------------------------------------
                                  Maximum  Maximum                  Lateral       Total        Flow
                                  Lateral    Total  Time of Max      Inflow      Inflow     Balance
                                   Inflow   Inflow   Occurrence      Volume      Volume       Error
  Node                 Type           CMS      CMS  days hr:min    10^6 ltr    10^6 ltr     Percent
  -------------------------------------------------------------------------------------------------
  CSO10                JUNCTION     0.113    0.113     0  04:15       0.593       0.594       0.123
  CSO7                 JUNCTION     0.067    0.067     0  03:50       0.504       0.504       0.107
  CSO8                 JUNCTION     0.299    0.299     0  04:10        1.72        1.72       0.025
  CSO9                 JUNCTION     0.088    0.088     0  04:20       0.571       0.572       0.113
  J1                   JUNCTION     0.178    0.178     0  04:15        1.12        1.13       0.062
  J10                  JUNCTION     0.223    0.514     0  04:10         1.3        3.02       0.174
  J11                  JUNCTION     0.000    0.298     0  04:10           0        1.72       0.423
  J12                  JUNCTION     0.000    0.561     0  04:11           0           5       1.061
  J13                  JUNCTION     0.420    0.420     0  03:50        1.66        1.66      -0.262
  J14                  JUNCTION     0.000    0.174     0  06:24           0        1.54       0.614
  J15                  JUNCTION     0.000    0.638     0  04:16           0        5.34       1.785
  J16                  JUNCTION     0.358    0.358     0  04:15        1.83        1.83       0.049
  J17                  JUNCTION     0.000    0.045     0  03:30           0        0.44       1.166
  J18                  JUNCTION     0.000    0.112     0  04:15           0       0.593       0.208
  J19                  JUNCTION     0.000    0.261     0  06:34           0         3.8       0.325
  J2                   JUNCTION     0.000    0.032     0  05:22           0       0.491       0.968
  J3                   JUNCTION     0.000    0.229     0  06:22           0        2.53       1.688
  J4                   JUNCTION     0.000    0.067     0  03:50           0       0.503       0.753
  J5                   JUNCTION     0.084    0.148     0  04:10       0.474       0.974       0.212
  J6                   JUNCTION     0.000    0.066     0  05:15           0       0.509       0.338
  J7                   JUNCTION     0.000    0.088     0  04:20           0       0.571       0.601
  J8                   JUNCTION     0.360    0.442     0  04:20        2.63         3.2       0.235
  J9                   JUNCTION     0.000    0.175     0  04:50           0        1.99       0.447
  Out_to_WWTP          OUTFALL      0.000    0.261     0  06:34           0        3.79       0.000
  T1                   STORAGE      0.000    0.600     0  04:19           0        5.25      17.843
  T2                   STORAGE      0.000    0.415     0  03:50           0        1.67      57.551
  T3                   STORAGE      0.000    0.550     0  04:13           0        4.94      33.363
  T4                   STORAGE      0.000    0.147     0  04:10           0       0.972      23.783
  T5                   STORAGE      0.000    0.176     0  04:15           0        1.12      39.352
  T6                   STORAGE      0.000    0.440     0  04:23           0        3.19      26.706
  
  
  **********************
  Node Surcharge Summary
  **********************
  
  Surcharging occurs when water rises above the top of the highest conduit.
  ---------------------------------------------------------------------
                                               Max. Height   Min. Depth
                                   Hours       Above Crown    Below Rim
  Node                 Type      Surcharged         Meters       Meters
  ---------------------------------------------------------------------
  CSO7                 JUNCTION        0.48          0.676        0.268
  CSO9                 JUNCTION        0.18          0.293        1.389
  J4                   JUNCTION        0.35          0.352        1.348
  
  
  *********************
  Node Flooding Summary
  *********************
  
  Flooding refers to all water that overflows a node, whether it ponds or not.
  --------------------------------------------------------------------------
                                                             Total   Maximum
                                 Maximum   Time of Max       Flood    Ponded
                        Hours       Rate    Occurrence      Volume     Depth
  Node                 Flooded       CMS   days hr:min    10^6 ltr    Meters
  --------------------------------------------------------------------------
  T6                      0.24     0.066      0  04:50       0.026     0.000
  
  
  **********************
  Storage Volume Summary
  **********************
  
  --------------------------------------------------------------------------------------------------
                         Average     Avg  Evap Exfil       Maximum     Max    Time of Max    Maximum
                          Volume    Pcnt  Pcnt  Pcnt        Volume    Pcnt     Occurrence    Outflow
  Storage Unit           1000 m3    Full  Loss  Loss       1000 m3    Full    days hr:min        CMS
  --------------------------------------------------------------------------------------------------
  T1                       0.308      44     0     0         0.654      93       0  06:34      0.261
  T2                       0.271      27     0     0         0.625      63       0  05:46      0.045
  T3                       1.010      39     0     0         2.193      84       0  06:23      0.174
  T4                       0.140      28     0     0         0.341      68       0  05:15      0.066
  T5                       0.165      33     0     0         0.332      66       0  05:22      0.032
  T6                       0.270      45     0     0         0.600     100       0  04:50      0.175
  
  
  ***********************
  Outfall Loading Summary
  ***********************
  
  -----------------------------------------------------------
                         Flow       Avg       Max       Total
                         Freq      Flow      Flow      Volume
  Outfall Node           Pcnt       CMS       CMS    10^6 ltr
  -----------------------------------------------------------
  Out_to_WWTP           98.79     0.161     0.261       3.789
  -----------------------------------------------------------
  System                98.79     0.161     0.261       3.789
  
  
  ********************
  Link Flow Summary
  ********************
  
  -----------------------------------------------------------------------------
                                 Maximum  Time of Max   Maximum    Max/    Max/
                                  |Flow|   Occurrence   |Veloc|    Full    Full
  Link                 Type          CMS  days hr:min     m/sec    Flow   Depth
  -----------------------------------------------------------------------------
  C1                   CONDUIT     0.032     0  05:25      0.99    0.01    0.11
  C10                  CONDUIT     0.440     0  04:23      1.66    0.05    0.57
  C11                  CONDUIT     0.222     0  06:24      1.84    0.01    0.10
  C12                  CONDUIT     0.175     0  05:05      1.44    0.01    0.09
  C13                  CONDUIT     0.550     0  04:13      1.78    0.03    0.56
  C14                  CONDUIT     0.261     0  06:34      2.06    0.01    0.08
  C15                  CONDUIT     0.298     0  04:10      2.64    0.95    0.66
  C16                  CONDUIT     0.294     0  04:11      1.51    0.03    0.11
  C17                  CONDUIT     0.510     0  04:11      2.54    0.03    0.12
  C18                  CONDUIT     0.415     0  03:50      3.36    0.02    0.54
  C19                  CONDUIT     0.041     0  03:30      0.93    0.01    0.16
  C2                   CONDUIT     0.065     0  05:21      1.53    0.07    0.21
  C20                  CONDUIT     0.353     0  04:15      2.34    0.01    0.10
  C21                  CONDUIT     0.112     0  04:15      1.66    0.64    0.45
  C22                  CONDUIT     0.109     0  04:17      1.19    0.05    0.24
  C23                  CONDUIT     0.600     0  04:19      1.25    0.07    0.59
  C3                   CONDUIT     0.175     0  06:23      2.08    0.07    0.16
  C4                   CONDUIT     0.176     0  04:15      3.06    0.04    0.57
  C5                   CONDUIT     0.067     0  03:50      1.32    1.15    1.00
  C6                   CONDUIT     0.066     0  04:10      1.28    1.05    0.72
  C7                   CONDUIT     0.147     0  04:10      1.44    0.04    0.56
  C8                   CONDUIT     0.088     0  04:20      1.31    1.11    0.79
  C9                   CONDUIT     0.085     0  04:23      1.15    0.29    0.40
  V1                   ORIFICE     0.261     0  06:34                      1.00
  V2                   ORIFICE     0.045     0  03:30                      1.00
  V3                   ORIFICE     0.174     0  06:24                      1.00
  V4                   ORIFICE     0.066     0  05:15                      1.00
  V5                   ORIFICE     0.032     0  05:22                      1.00
  V6                   ORIFICE     0.175     0  04:50                      1.00
  
  
  ***************************
  Flow Classification Summary
  ***************************
  
  -------------------------------------------------------------------------------------
                      Adjusted    ---------- Fraction of Time in Flow Class ---------- 
                       /Actual         Up    Down  Sub   Sup   Up    Down  Norm  Inlet 
  Conduit               Length    Dry  Dry   Dry   Crit  Crit  Crit  Crit  Ltd   Ctrl  
  -------------------------------------------------------------------------------------
  C1                      1.00   0.00  0.00  0.00  0.57  0.43  0.00  0.00  0.93  0.00
  C10                     1.00   0.00  0.00  0.00  0.94  0.06  0.00  0.00  0.97  0.00
  C11                     1.00   0.00  0.00  0.00  0.34  0.66  0.00  0.00  1.00  0.00
  C12                     1.00   0.00  0.00  0.00  0.53  0.47  0.00  0.00  0.90  0.00
  C13                     1.00   0.00  0.00  0.00  0.88  0.11  0.00  0.00  0.82  0.00
  C14                     1.00   0.01  0.01  0.00  0.01  0.98  0.00  0.00  0.49  0.00
  C15                     1.00   0.00  0.00  0.00  0.00  1.00  0.00  0.00  0.00  0.00
  C16                     1.00   0.00  0.00  0.00  0.18  0.82  0.00  0.00  0.19  0.00
  C17                     1.00   0.00  0.00  0.00  0.31  0.69  0.00  0.00  0.96  0.00
  C18                     1.00   0.00  0.00  0.00  0.88  0.12  0.00  0.00  0.96  0.00
  C19                     1.00   0.00  0.00  0.00  0.93  0.07  0.00  0.00  1.00  0.00
  C2                      1.00   0.00  0.00  0.00  0.46  0.54  0.00  0.00  0.97  0.00
  C20                     1.00   0.00  0.00  0.00  0.46  0.54  0.00  0.00  0.98  0.00
  C21                     1.00   0.00  0.00  0.00  0.00  1.00  0.00  0.00  0.00  0.00
  C22                     1.00   0.00  0.00  0.00  0.94  0.06  0.00  0.00  1.00  0.00
  C23                     1.00   0.00  0.00  0.00  0.87  0.12  0.00  0.00  0.94  0.00
  C3                      1.00   0.00  0.01  0.00  0.05  0.94  0.00  0.00  0.56  0.00
  C4                      1.00   0.00  0.00  0.00  0.95  0.05  0.00  0.00  0.98  0.00
  C5                      1.00   0.00  0.00  0.00  0.85  0.15  0.00  0.00  0.90  0.00
  C6                      1.00   0.00  0.00  0.00  0.14  0.86  0.00  0.00  0.00  0.00
  C7                      1.00   0.00  0.00  0.00  0.94  0.06  0.00  0.00  0.96  0.00
  C8                      1.00   0.00  0.00  0.00  0.08  0.92  0.00  0.00  0.00  0.00
  C9                      1.00   0.00  0.00  0.00  1.00  0.00  0.00  0.00  1.00  0.00
  
  
  *************************
  Conduit Surcharge Summary
  *************************
  
  ----------------------------------------------------------------------------
                                                           Hours        Hours 
                         --------- Hours Full --------   Above Full   Capacity
  Conduit                Both Ends  Upstream  Dnstream   Normal Flow   Limited
  ----------------------------------------------------------------------------
  C10                         0.01      0.01      3.00      0.01         0.01
  C13                         0.01      0.01      2.69      0.01         0.01
  C18                         0.01      0.01      2.39      0.01         0.01
  C23                         0.01      0.01      2.87      0.01         0.01
  C4                          0.01      0.01      3.92      0.01         0.01
  C5                          0.45      0.48      0.58      0.50         0.42
  C6                          0.01      0.35      0.01      0.14         0.01
  C7                          0.01      0.01      2.77      0.01         0.01
  C8                          0.01      0.18      0.01      0.18         0.01
  

  Analysis begun on:  Sun Jul 17 20:07:52 2022
  Analysis ended on:  Sun Jul 17 20:07:52 2022
  Total elapsed time: < 1 sec