
  EPA STORM WATER MANAGEMENT MODEL - VERSION 5.1 (Build 5.3.0.dev0)
  --------------------------------------------------------------

  
  *********************************************************
  NOTE: The summary statistics displayed in this report are
  based on results found at every computational time step,  
  not just on results from each reporting time step.
  *********************************************************
  
  ****************
  Analysis Options
  ****************
  Flow Units ............... CMS
  Process Models:
    Rainfall/Runoff ........ YES
    RDII ................... NO
    Snowmelt ............... NO
    Groundwater ............ NO
    Flow Routing ........... YES
    Ponding Allowed ........ NO
    Water Quality .......... NO
  Infiltration Method ...... HORTON
  Flow Routing Method ...... DYNWAVE
  Surcharge Method ......... EXTRAN
  Starting Date ............ 10/12/2009 11:20:00
  Ending Date .............. 10/12/2009 23:10:00
  Antecedent Dry Days ...... 0.0
  Report Time Step ......... 00:05:00
  Wet Time Step ............ 00:05:00
  Dry Time Step ............ 01:00:00
  Routing Time Step ........ 30.00 sec
  Variable Time Step ....... YES
  Maximum Trials ........... 8
  Number of Threads ........ 1
  Head Tolerance ........... 0.001500 m
  
  
  **************************        Volume         Depth
  Runoff Quantity Continuity     hectare-m            mm
  **************************     ---------       -------
  Total Precipitation ......         2.083        11.562
  Evaporation Loss .........         0.000         0.000
  Infiltration Loss ........         0.000         0.000
  Surface Runoff ...........         2.059        11.428
  Final Storage ............         0.027         0.149
  Continuity Error (%) .....        -0.133
  
  
  **************************        Volume        Volume
  Flow Routing Continuity        hectare-m      10^6 ltr
  **************************     ---------     ---------
  Dry Weather Inflow .......         0.446         4.460
  Wet Weather Inflow .......         2.059        20.591
  Groundwater Inflow .......         0.000         0.000
  RDII Inflow ..............         0.000         0.000
  External Inflow ..........         0.000         0.000
  External Outflow .........         0.824         8.240
  Flooding Loss ............         0.722         7.219
  Evaporation Loss .........         0.000         0.000
  Exfiltration Loss ........         0.000         0.000
  Initial Stored Volume ....         0.000         0.000
  Final Stored Volume ......         0.750         7.505
  Continuity Error (%) .....         8.333
  
  
  *************************
  Highest Continuity Errors
  *************************
  Node T2 (37.02%)
  Node T5 (27.78%)
  Node T4 (25.35%)
  Node T3 (13.97%)
  Node J12 (11.47%)
  
  
  ***************************
  Time-Step Critical Elements
  ***************************
  Link C15 (56.98%)
  Link C8 (1.78%)
  
  
  ********************************
  Highest Flow Instability Indexes
  ********************************
  Link C13 (6)
  Link C15 (2)
  Link C20 (2)
  Link C18 (1)
  Link C10 (1)
  
  
  *************************
  Routing Time Step Summary
  *************************
  Minimum Time Step           :     0.18 sec
  Average Time Step           :    24.96 sec
  Maximum Time Step           :    30.00 sec
  Percent in Steady State     :    10.05
  Average Iterations per Step :     2.55
  Percent Not Converging      :     0.26
  
  
  ***************************
  Subcatchment Runoff Summary
  ***************************
  
  ------------------------------------------------------------------------------------------------------------------------------
                            Total      Total      Total      Total     Imperv       Perv      Total       Total     Peak  Runoff
                           Precip      Runon       Evap      Infil     Runoff     Runoff     Runoff      Runoff   Runoff   Coeff
  Subcatchment                 mm         mm         mm         mm         mm         mm         mm    10^6 ltr      CMS
  ------------------------------------------------------------------------------------------------------------------------------
  SC01                       9.48       0.00       0.00       0.00       9.38       0.00       9.38        3.10     0.43   0.990
  SC010                      9.48       0.00       0.00       0.00       9.35       0.00       9.35        1.10     0.14   0.986
  SC02                       9.07       0.00       0.00       0.00       8.98       0.00       8.98        2.04     0.33   0.990
  SC03                      13.49       0.00       0.00       0.00      13.43       0.00      13.43        2.42     0.33   0.996
  SC04                       9.07       0.00       0.00       0.00       8.87       0.00       8.87        0.61     0.08   0.978
  SC05                       9.48       0.00       0.00       0.00       9.38       0.00       9.38        1.46     0.20   0.989
  SC06                      14.67       0.00       0.00       0.00      14.42       0.00      14.42        4.69     0.48   0.983
  SC07                       9.07       0.00       0.00       0.00       8.87       0.00       8.87        0.42     0.05   0.978
  SC08                      13.49       0.00       0.00       0.00      13.37       0.00      13.37        3.74     0.44   0.991
  SC09                      14.67       0.00       0.00       0.00      14.54       0.00      14.54        1.00     0.12   0.991
  
  
  ******************
  Node Depth Summary
  ******************
  
  ---------------------------------------------------------------------------------
                                 Average  Maximum  Maximum  Time of Max    Reported
                                   Depth    Depth      HGL   Occurrence   Max Depth
  Node                 Type       Meters   Meters   Meters  days hr:min      Meters
  ---------------------------------------------------------------------------------
  CSO10                JUNCTION     0.14     0.33    30.33     0  06:05        0.32
  CSO7                 JUNCTION     0.10     0.22    34.22     0  04:10        0.22
  CSO8                 JUNCTION     0.27     1.69    33.69     0  06:10        1.69
  CSO9                 JUNCTION     0.25     1.82    41.82     0  06:15        1.82
  J1                   JUNCTION     0.08     0.15    34.15     0  06:05        0.15
  J10                  JUNCTION     0.13     0.27    29.27     0  06:10        0.27
  J11                  JUNCTION     0.13     0.29    31.29     0  06:10        0.29
  J12                  JUNCTION     0.51     1.05    27.05     0  06:47        1.05
  J13                  JUNCTION     0.07     0.16    29.16     0  04:10        0.16
  J14                  JUNCTION     0.12     0.15    20.15     0  06:54        0.15
  J15                  JUNCTION     0.18     0.29    15.29     0  06:08        0.29
  J16                  JUNCTION     0.08     0.16    30.16     0  06:05        0.16
  J17                  JUNCTION     0.06     0.07    20.07     0  08:31        0.07
  J18                  JUNCTION     0.06     0.14    29.14     0  06:06        0.13
  J19                  JUNCTION     0.14     0.17     8.17     0  06:04        0.17
  J2                   JUNCTION     0.06     0.08    25.08     0  08:30        0.08
  J3                   JUNCTION     0.11     0.14    18.14     0  08:40        0.14
  J4                   JUNCTION     0.12     0.26    33.26     0  04:12        0.25
  J5                   JUNCTION     0.07     0.13    32.13     0  04:10        0.13
  J6                   JUNCTION     0.06     0.07    25.07     0  08:35        0.07
  J7                   JUNCTION     0.11     0.22    39.22     0  06:21        0.22
  J8                   JUNCTION     0.14     0.26    36.26     0  06:21        0.26
  J9                   JUNCTION     0.10     0.11    29.11     0  08:06        0.11
  Out_to_WWTP          OUTFALL      0.14     0.17     6.17     0  09:18        0.17
  T1                   STORAGE      3.27     5.00    15.00     0  06:03        5.00
  T2                   STORAGE      2.60     4.18    25.18     0  08:28        4.18
  T3                   STORAGE      3.16     5.00    27.00     0  06:47        5.00
  T4                   STORAGE      2.71     4.40    31.40     0  08:33        4.40
  T5                   STORAGE      2.89     5.00    32.00     0  08:07        5.00
  T6                   STORAGE      4.02     5.00    36.00     0  04:51        5.00
  
  
  *******************
  Node Inflow Summary
  *******************
  
  -------------------------------------------------------------------------------------------------
                                  Maximum  Maximum                  Lateral       Total        Flow
                                  Lateral    Total  Time of Max      Inflow      Inflow     Balance
                                   Inflow   Inflow   Occurrence      Volume      Volume       Error
  Node                 Type           CMS      CMS  days hr:min    10^6 ltr    10^6 ltr     Percent
  -------------------------------------------------------------------------------------------------
  CSO10                JUNCTION     0.142    0.142     0  06:05        1.26        1.26      -0.661
  CSO7                 JUNCTION     0.062    0.062     0  04:10       0.755       0.756      -0.313
  CSO8                 JUNCTION     0.455    0.455     0  06:10        3.99        4.03      -1.245
  CSO9                 JUNCTION     0.122    0.122     0  06:20        1.23        1.24      -1.661
  J1                   JUNCTION     0.211    0.211     0  06:05        2.11        2.11      -0.929
  J10                  JUNCTION     0.338    0.775     0  06:09        2.86        7.19      -3.264
  J11                  JUNCTION     0.000    0.455     0  06:10           0        4.08      -5.318
  J12                  JUNCTION     0.000    0.849     0  06:10           0        10.2      12.961
  J13                  JUNCTION     0.340    0.340     0  04:10        2.58        2.59      -0.998
  J14                  JUNCTION     0.000    0.124     0  06:48           0        3.76       0.194
  J15                  JUNCTION     0.000    0.758     0  06:05           0        11.6      -0.285
  J16                  JUNCTION     0.440    0.440     0  06:05        3.73        3.73      -1.102
  J17                  JUNCTION     0.000    0.030     0  08:29           0       0.918       0.660
  J18                  JUNCTION     0.000    0.140     0  06:05           0        1.27      -1.967
  J19                  JUNCTION     0.000    0.271     0  06:03           0        8.25       0.144
  J2                   JUNCTION     0.000    0.039     0  08:07           0        1.15       0.485
  J3                   JUNCTION     0.000    0.189     0  08:28           0        5.69       0.670
  J4                   JUNCTION     0.000    0.062     0  04:10           0       0.759      -0.512
  J5                   JUNCTION     0.082    0.139     0  04:10       0.758        1.52      -0.565
  J6                   JUNCTION     0.000    0.026     0  08:33           0       0.796       0.487
  J7                   JUNCTION     0.000    0.122     0  06:20           0        1.26      -4.855
  J8                   JUNCTION     0.508    0.627     0  06:20        5.78        7.14      -2.994
  J9                   JUNCTION     0.000    0.075     0  04:51           0        2.74       0.535
  Out_to_WWTP          OUTFALL      0.000    0.271     0  06:05           0        8.24       0.000
  T1                   STORAGE      0.000    0.729     0  06:08           0        11.7       6.336
  T2                   STORAGE      0.000    0.340     0  04:10           0        2.61      58.790
  T3                   STORAGE      0.000    0.972     0  06:56           0           9      16.241
  T4                   STORAGE      0.000    0.138     0  04:11           0        1.53      33.960
  T5                   STORAGE      0.000    0.208     0  06:05           0        2.13      38.472
  T6                   STORAGE      0.000    0.625     0  06:21           0        7.36       8.802
  
  
  **********************
  Node Surcharge Summary
  **********************
  
  Surcharging occurs when water rises above the top of the highest conduit.
  ---------------------------------------------------------------------
                                               Max. Height   Min. Depth
                                   Hours       Above Crown    Below Rim
  Node                 Type      Surcharged         Meters       Meters
  ---------------------------------------------------------------------
  CSO8                 JUNCTION        0.96          1.236        0.311
  CSO9                 JUNCTION        1.03          1.503        0.179
  
  
  *********************
  Node Flooding Summary
  *********************
  
  Flooding refers to all water that overflows a node, whether it ponds or not.
  --------------------------------------------------------------------------
                                                             Total   Maximum
                                 Maximum   Time of Max       Flood    Ponded
                        Hours       Rate    Occurrence      Volume     Depth
  Node                 Flooded       CMS   days hr:min    10^6 ltr    Meters
  --------------------------------------------------------------------------
  T1                      2.94     0.458      0  06:08       2.124     0.000
  T3                      1.60     0.848      0  06:56       1.483     0.000
  T5                      0.39     0.029      0  08:07       0.020     0.000
  T6                      3.95     0.550      0  06:21       3.588     0.000
  
  
  **********************
  Storage Volume Summary
  **********************
  
  --------------------------------------------------------------------------------------------------
                         Average     Avg  Evap Exfil       Maximum     Max    Time of Max    Maximum
                          Volume    Pcnt  Pcnt  Pcnt        Volume    Pcnt     Occurrence    Outflow
  Storage Unit           1000 m3    Full  Loss  Loss       1000 m3    Full    days hr:min        CMS
  --------------------------------------------------------------------------------------------------
  T1                       0.457      65     0     0         0.700     100       0  06:03      0.271
  T2                       0.520      52     0     0         0.837      84       0  08:28      0.030
  T3                       1.644      63     0     0         2.600     100       0  06:47      0.154
  T4                       0.271      54     0     0         0.440      88       0  08:33      0.026
  T5                       0.289      58     0     0         0.500     100       0  08:07      0.039
  T6                       0.482      80     0     0         0.600     100       0  04:51      0.075
  
  
  ***********************
  Outfall Loading Summary
  ***********************
  
  -----------------------------------------------------------
                         Flow       Avg       Max       Total
                         Freq      Flow      Flow      Volume
  Outfall Node           Pcnt       CMS       CMS    10^6 ltr
  -----------------------------------------------------------
  Out_to_WWTP           99.48     0.201     0.271       8.240
  -----------------------------------------------------------
  System                99.48     0.201     0.271       8.240
  
  
  ********************
  Link Flow Summary
  ********************
  
  -----------------------------------------------------------------------------
                                 Maximum  Time of Max   Maximum    Max/    Max/
                                  |Flow|   Occurrence   |Veloc|    Full    Full
  Link                 Type          CMS  days hr:min     m/sec    Flow   Depth
  -----------------------------------------------------------------------------
  C1                   CONDUIT     0.039     0  08:30      0.96    0.01    0.11
  C10                  CONDUIT     0.625     0  06:21      1.81    0.06    0.59
  C11                  CONDUIT     0.189     0  08:40      1.73    0.01    0.10
  C12                  CONDUIT     0.075     0  06:03      0.98    0.01    0.29
  C13                  CONDUIT     0.972     0  06:56      1.53    0.06    0.76
  C14                  CONDUIT     0.271     0  06:05      2.08    0.02    0.09
  C15                  CONDUIT     0.455     0  06:10      3.23    1.45    0.82
  C16                  CONDUIT     0.452     0  06:10      1.72    0.04    0.14
  C17                  CONDUIT     0.773     0  06:10      2.85    0.04    0.32
  C18                  CONDUIT     0.340     0  04:10      3.17    0.01    0.53
  C19                  CONDUIT     0.030     0  08:31      0.57    0.01    0.18
  C2                   CONDUIT     0.026     0  08:35      0.80    0.03    0.17
  C20                  CONDUIT     0.435     0  06:05      3.22    0.01    0.11
  C21                  CONDUIT     0.140     0  06:05      1.74    0.80    0.52
  C22                  CONDUIT     0.137     0  06:07      1.30    0.06    0.26
  C23                  CONDUIT     0.729     0  06:08      1.35    0.08    0.60
  C3                   CONDUIT     0.124     0  06:55      1.79    0.05    0.14
  C4                   CONDUIT     0.208     0  06:05      3.10    0.05    0.58
  C5                   CONDUIT     0.062     0  04:10      1.34    1.05    0.93
  C6                   CONDUIT     0.059     0  04:13      1.27    0.93    0.63
  C7                   CONDUIT     0.138     0  04:11      1.57    0.03    0.56
  C8                   CONDUIT     0.122     0  06:20      1.71    1.53    0.85
  C9                   CONDUIT     0.120     0  06:21      1.29    0.41    0.48
  V1                   ORIFICE     0.271     0  06:03                      1.00
  V2                   ORIFICE     0.030     0  08:29                      0.24
  V3                   ORIFICE     0.124     0  06:48                      0.65
  V4                   ORIFICE     0.026     0  08:33                      0.35
  V5                   ORIFICE     0.039     0  08:07                      1.00
  V6                   ORIFICE     0.075     0  04:51                      0.43
  
  
  ***************************
  Flow Classification Summary
  ***************************
  
  -------------------------------------------------------------------------------------
                      Adjusted    ---------- Fraction of Time in Flow Class ---------- 
                       /Actual         Up    Down  Sub   Sup   Up    Down  Norm  Inlet 
  Conduit               Length    Dry  Dry   Dry   Crit  Crit  Crit  Crit  Ltd   Ctrl  
  -------------------------------------------------------------------------------------
  C1                      1.00   0.00  0.00  0.00  0.62  0.37  0.00  0.00  0.97  0.00
  C10                     1.00   0.00  0.00  0.00  0.98  0.02  0.00  0.00  0.99  0.00
  C11                     1.00   0.00  0.00  0.00  0.17  0.83  0.00  0.00  1.00  0.00
  C12                     1.00   0.00  0.00  0.00  0.91  0.08  0.00  0.00  1.00  0.00
  C13                     1.00   0.00  0.00  0.00  0.93  0.06  0.00  0.00  0.47  0.00
  C14                     1.00   0.00  0.00  0.00  0.01  0.99  0.00  0.00  0.37  0.00
  C15                     1.00   0.00  0.00  0.00  0.00  1.00  0.00  0.00  0.04  0.00
  C16                     1.00   0.00  0.00  0.00  0.31  0.69  0.00  0.00  0.41  0.00
  C17                     1.00   0.00  0.00  0.00  0.46  0.54  0.00  0.00  0.98  0.00
  C18                     1.00   0.00  0.00  0.00  0.97  0.03  0.00  0.00  0.98  0.00
  C19                     1.00   0.00  0.00  0.00  1.00  0.00  0.00  0.00  1.00  0.00
  C2                      1.00   0.00  0.00  0.00  0.92  0.08  0.00  0.00  0.98  0.00
  C20                     1.00   0.00  0.00  0.00  0.35  0.65  0.00  0.00  0.99  0.00
  C21                     1.00   0.00  0.00  0.00  0.00  1.00  0.00  0.00  0.00  0.00
  C22                     1.00   0.00  0.00  0.00  0.93  0.07  0.00  0.00  1.00  0.00
  C23                     1.00   0.00  0.00  0.00  0.95  0.05  0.00  0.00  0.97  0.00
  C3                      1.00   0.00  0.00  0.00  0.02  0.97  0.00  0.00  0.06  0.00
  C4                      1.00   0.00  0.00  0.00  0.98  0.02  0.00  0.00  0.99  0.00
  C5                      1.00   0.00  0.00  0.00  0.93  0.07  0.00  0.00  0.99  0.00
  C6                      1.00   0.00  0.00  0.00  0.01  0.98  0.00  0.00  0.00  0.00
  C7                      1.00   0.00  0.00  0.00  0.97  0.03  0.00  0.00  0.98  0.00
  C8                      1.00   0.00  0.00  0.00  0.35  0.65  0.00  0.00  0.01  0.00
  C9                      1.00   0.00  0.00  0.00  0.98  0.02  0.00  0.00  1.00  0.00
  
  
  *************************
  Conduit Surcharge Summary
  *************************
  
  ----------------------------------------------------------------------------
                                                           Hours        Hours 
                         --------- Hours Full --------   Above Full   Capacity
  Conduit                Both Ends  Upstream  Dnstream   Normal Flow   Limited
  ----------------------------------------------------------------------------
  C10                         0.01      0.01     10.68      0.01         0.01
  C13                         0.01      0.01      7.42      0.01         0.01
  C15                         0.01      0.95      0.01      1.00         0.01
  C18                         0.01      0.01      7.52      0.01         0.01
  C23                         0.01      0.01      7.66      0.01         0.01
  C4                          0.01      0.01      8.14      0.01         0.01
  C5                          0.01      0.01      0.01      0.10         0.01
  C7                          0.01      0.01      7.98      0.01         0.01
  C8                          0.01      1.03      0.01      1.05         0.01
  

  Analysis begun on:  Sun Jul 17 21:45:42 2022
  Analysis ended on:  Sun Jul 17 21:45:43 2022
  Total elapsed time: 00:00:01