
  EPA STORM WATER MANAGEMENT MODEL - VERSION 5.1 (Build 5.3.0.dev0)
  --------------------------------------------------------------

  
  *********************************************************
  NOTE: The summary statistics displayed in this report are
  based on results found at every computational time step,  
  not just on results from each reporting time step.
  *********************************************************
  
  ****************
  Analysis Options
  ****************
  Flow Units ............... CMS
  Process Models:
    Rainfall/Runoff ........ YES
    RDII ................... NO
    Snowmelt ............... NO
    Groundwater ............ NO
    Flow Routing ........... YES
    Ponding Allowed ........ NO
    Water Quality .......... NO
  Infiltration Method ...... HORTON
  Flow Routing Method ...... DYNWAVE
  Surcharge Method ......... EXTRAN
  Starting Date ............ 04/10/2007 02:10:00
  Ending Date .............. 04/10/2007 15:10:00
  Antecedent Dry Days ...... 0.0
  Report Time Step ......... 00:05:00
  Wet Time Step ............ 00:05:00
  Dry Time Step ............ 01:00:00
  Routing Time Step ........ 30.00 sec
  Variable Time Step ....... YES
  Maximum Trials ........... 8
  Number of Threads ........ 1
  Head Tolerance ........... 0.001500 m
  
  
  **************************        Volume         Depth
  Runoff Quantity Continuity     hectare-m            mm
  **************************     ---------       -------
  Total Precipitation ......         1.081         5.999
  Evaporation Loss .........         0.000         0.000
  Infiltration Loss ........         0.000         0.000
  Surface Runoff ...........         1.054         5.852
  Final Storage ............         0.027         0.153
  Continuity Error (%) .....        -0.084
  
  
  **************************        Volume        Volume
  Flow Routing Continuity        hectare-m      10^6 ltr
  **************************     ---------     ---------
  Dry Weather Inflow .......         0.507         5.067
  Wet Weather Inflow .......         1.054        10.541
  Groundwater Inflow .......         0.000         0.000
  RDII Inflow ..............         0.000         0.000
  External Inflow ..........         0.000         0.000
  External Outflow .........         0.807         8.072
  Flooding Loss ............         0.008         0.077
  Evaporation Loss .........         0.000         0.000
  Exfiltration Loss ........         0.000         0.000
  Initial Stored Volume ....         0.000         0.000
  Final Stored Volume ......         0.586         5.863
  Continuity Error (%) .....        10.221
  
  
  *************************
  Highest Continuity Errors
  *************************
  Node T2 (28.36%)
  Node T6 (19.64%)
  Node T4 (18.17%)
  Node T5 (17.53%)
  Node T3 (17.28%)
  
  
  ***************************
  Time-Step Critical Elements
  ***************************
  Link C15 (33.62%)
  
  
  ********************************
  Highest Flow Instability Indexes
  ********************************
  Link C15 (3)
  Link C20 (3)
  Link C18 (3)
  Link C4 (2)
  Link C17 (2)
  
  
  *************************
  Routing Time Step Summary
  *************************
  Minimum Time Step           :     0.17 sec
  Average Time Step           :    28.52 sec
  Maximum Time Step           :    30.00 sec
  Percent in Steady State     :     2.18
  Average Iterations per Step :     2.01
  Percent Not Converging      :     0.00
  
  
  ***************************
  Subcatchment Runoff Summary
  ***************************
  
  ------------------------------------------------------------------------------------------------------------------------------
                            Total      Total      Total      Total     Imperv       Perv      Total       Total     Peak  Runoff
                           Precip      Runon       Evap      Infil     Runoff     Runoff     Runoff      Runoff   Runoff   Coeff
  Subcatchment                 mm         mm         mm         mm         mm         mm         mm    10^6 ltr      CMS
  ------------------------------------------------------------------------------------------------------------------------------
  SC01                       6.04       0.00       0.00       0.00       5.95       0.00       5.95        1.96     0.12   0.985
  SC010                      6.04       0.00       0.00       0.00       5.92       0.00       5.92        0.70     0.04   0.980
  SC02                       6.03       0.00       0.00       0.00       5.93       0.00       5.93        1.35     0.09   0.983
  SC03                       5.51       0.00       0.00       0.00       5.43       0.00       5.43        0.98     0.06   0.986
  SC04                       6.03       0.00       0.00       0.00       5.81       0.00       5.81        0.40     0.02   0.964
  SC05                       6.04       0.00       0.00       0.00       5.94       0.00       5.94        0.93     0.06   0.984
  SC06                       6.48       0.00       0.00       0.00       6.20       0.00       6.20        2.02     0.09   0.957
  SC07                       6.03       0.00       0.00       0.00       5.82       0.00       5.82        0.28     0.02   0.964
  SC08                       5.51       0.00       0.00       0.00       5.36       0.00       5.36        1.50     0.09   0.973
  SC09                       6.48       0.00       0.00       0.00       6.31       0.00       6.31        0.44     0.03   0.973
  
  
  ******************
  Node Depth Summary
  ******************
  
  ---------------------------------------------------------------------------------
                                 Average  Maximum  Maximum  Time of Max    Reported
                                   Depth    Depth      HGL   Occurrence   Max Depth
  Node                 Type       Meters   Meters   Meters  days hr:min      Meters
  ---------------------------------------------------------------------------------
  CSO10                JUNCTION     0.10     0.16    30.16     0  01:25        0.16
  CSO7                 JUNCTION     0.08     0.12    34.12     0  07:10        0.12
  CSO8                 JUNCTION     0.11     0.18    32.18     0  08:15        0.18
  CSO9                 JUNCTION     0.09     0.13    40.13     0  01:25        0.13
  J1                   JUNCTION     0.06     0.09    34.09     0  06:56        0.09
  J10                  JUNCTION     0.08     0.13    29.13     0  08:17        0.13
  J11                  JUNCTION     0.09     0.14    31.14     0  08:17        0.14
  J12                  JUNCTION     0.12     0.17    26.17     0  08:21        0.17
  J13                  JUNCTION     0.06     0.09    29.09     0  07:10        0.09
  J14                  JUNCTION     0.11     0.14    20.14     0  12:54        0.14
  J15                  JUNCTION     0.15     0.18    15.18     0  07:15        0.18
  J16                  JUNCTION     0.06     0.09    30.09     0  01:25        0.09
  J17                  JUNCTION     0.05     0.07    20.07     0  11:16        0.07
  J18                  JUNCTION     0.05     0.07    29.07     0  01:27        0.07
  J19                  JUNCTION     0.13     0.16     8.16     0  10:12        0.16
  J2                   JUNCTION     0.06     0.07    25.07     0  10:32        0.07
  J3                   JUNCTION     0.10     0.12    18.12     0  11:52        0.12
  J4                   JUNCTION     0.10     0.14    33.14     0  07:15        0.14
  J5                   JUNCTION     0.06     0.08    32.08     0  07:14        0.08
  J6                   JUNCTION     0.05     0.07    25.07     0  11:23        0.07
  J7                   JUNCTION     0.07     0.10    39.10     0  07:27        0.10
  J8                   JUNCTION     0.10     0.13    36.13     0  07:26        0.13
  J9                   JUNCTION     0.09     0.11    29.11     0  11:08        0.11
  Out_to_WWTP          OUTFALL      0.13     0.16     6.16     0  10:12        0.16
  T1                   STORAGE      2.37     3.78    13.78     0  10:12        3.78
  T2                   STORAGE      1.70     2.87    23.87     0  11:13        2.87
  T3                   STORAGE      1.70     3.38    25.38     0  12:34        3.38
  T4                   STORAGE      1.69     3.04    30.04     0  11:21        3.04
  T5                   STORAGE      1.97     3.18    30.18     0  10:30        3.18
  T6                   STORAGE      2.99     5.00    36.00     0  09:34        5.00
  
  
  *******************
  Node Inflow Summary
  *******************
  
  -------------------------------------------------------------------------------------------------
                                  Maximum  Maximum                  Lateral       Total        Flow
                                  Lateral    Total  Time of Max      Inflow      Inflow     Balance
                                   Inflow   Inflow   Occurrence      Volume      Volume       Error
  Node                 Type           CMS      CMS  days hr:min    10^6 ltr    10^6 ltr     Percent
  -------------------------------------------------------------------------------------------------
  CSO10                JUNCTION     0.041    0.041     0  01:25       0.875       0.875      -0.024
  CSO7                 JUNCTION     0.025    0.025     0  07:10       0.651       0.651      -0.097
  CSO8                 JUNCTION     0.099    0.099     0  08:15        1.84        1.85       0.017
  CSO9                 JUNCTION     0.027    0.027     0  01:25       0.688       0.688      -0.034
  J1                   JUNCTION     0.066    0.066     0  06:55        1.65        1.65      -0.137
  J10                  JUNCTION     0.075    0.172     0  08:15        1.47        3.32       0.070
  J11                  JUNCTION     0.000    0.099     0  08:15           0        1.85       0.247
  J12                  JUNCTION     0.000    0.242     0  08:18           0        5.83       0.466
  J13                  JUNCTION     0.107    0.107     0  07:10        1.95        1.95      -0.248
  J14                  JUNCTION     0.000    0.101     0  12:34           0        3.04       0.211
  J15                  JUNCTION     0.000    0.285     0  06:57           0        9.18       0.813
  J16                  JUNCTION     0.123    0.123     0  01:25        2.68        2.68      -0.074
  J17                  JUNCTION     0.000    0.025     0  11:13           0       0.848       0.610
  J18                  JUNCTION     0.000    0.040     0  01:25           0       0.875       0.090
  J19                  JUNCTION     0.000    0.235     0  10:12           0        8.08       0.133
  J2                   JUNCTION     0.000    0.031     0  10:30           0        1.08       0.422
  J3                   JUNCTION     0.000    0.154     0  11:51           0        4.81       0.694
  J4                   JUNCTION     0.000    0.025     0  07:11           0       0.652       0.523
  J5                   JUNCTION     0.027    0.051     0  07:13       0.565        1.21       0.072
  J6                   JUNCTION     0.000    0.022     0  11:21           0       0.704       0.489
  J7                   JUNCTION     0.000    0.027     0  01:25           0       0.689       0.449
  J8                   JUNCTION     0.119    0.145     0  07:25        3.23        3.92       0.046
  J9                   JUNCTION     0.000    0.075     0  09:34           0        2.53       0.665
  Out_to_WWTP          OUTFALL      0.000    0.235     0  10:12           0        8.07       0.000
  T1                   STORAGE      0.000    0.283     0  07:15           0         9.1       6.503
  T2                   STORAGE      0.000    0.106     0  07:11           0        1.96      39.583
  T3                   STORAGE      0.000    0.240     0  08:22           0         5.8      20.884
  T4                   STORAGE      0.000    0.051     0  07:15           0        1.21      22.209
  T5                   STORAGE      0.000    0.066     0  06:56           0        1.65      21.256
  T6                   STORAGE      0.000    0.145     0  07:26           0        3.92      24.448
  
  
  **********************
  Node Surcharge Summary
  **********************
  
  No nodes were surcharged.
  
  
  *********************
  Node Flooding Summary
  *********************
  
  Flooding refers to all water that overflows a node, whether it ponds or not.
  --------------------------------------------------------------------------
                                                             Total   Maximum
                                 Maximum   Time of Max       Flood    Ponded
                        Hours       Rate    Occurrence      Volume     Depth
  Node                 Flooded       CMS   days hr:min    10^6 ltr    Meters
  --------------------------------------------------------------------------
  T6                      1.57     0.027      0  09:55       0.077     0.000
  
  
  **********************
  Storage Volume Summary
  **********************
  
  --------------------------------------------------------------------------------------------------
                         Average     Avg  Evap Exfil       Maximum     Max    Time of Max    Maximum
                          Volume    Pcnt  Pcnt  Pcnt        Volume    Pcnt     Occurrence    Outflow
  Storage Unit           1000 m3    Full  Loss  Loss       1000 m3    Full    days hr:min        CMS
  --------------------------------------------------------------------------------------------------
  T1                       0.331      47     0     0         0.530      76       0  10:12      0.235
  T2                       0.340      34     0     0         0.574      57       0  11:13      0.025
  T3                       0.881      34     0     0         1.757      68       0  12:34      0.101
  T4                       0.169      34     0     0         0.304      61       0  11:21      0.022
  T5                       0.197      39     0     0         0.318      64       0  10:30      0.031
  T6                       0.359      60     0     0         0.600     100       0  09:34      0.075
  
  
  ***********************
  Outfall Loading Summary
  ***********************
  
  -----------------------------------------------------------
                         Flow       Avg       Max       Total
                         Freq      Flow      Flow      Volume
  Outfall Node           Pcnt       CMS       CMS    10^6 ltr
  -----------------------------------------------------------
  Out_to_WWTP           98.78     0.176     0.235       8.072
  -----------------------------------------------------------
  System                98.78     0.176     0.235       8.072
  
  
  ********************
  Link Flow Summary
  ********************
  
  -----------------------------------------------------------------------------
                                 Maximum  Time of Max   Maximum    Max/    Max/
                                  |Flow|   Occurrence   |Veloc|    Full    Full
  Link                 Type          CMS  days hr:min     m/sec    Flow   Depth
  -----------------------------------------------------------------------------
  C1                   CONDUIT     0.031     0  10:32      0.85    0.01    0.10
  C10                  CONDUIT     0.145     0  07:26      2.35    0.01    0.54
  C11                  CONDUIT     0.154     0  11:53      1.59    0.01    0.07
  C12                  CONDUIT     0.075     0  10:35      1.09    0.01    0.07
  C13                  CONDUIT     0.240     0  08:22      1.68    0.01    0.54
  C14                  CONDUIT     0.235     0  10:12      2.00    0.01    0.08
  C15                  CONDUIT     0.099     0  08:15      1.96    0.31    0.35
  C16                  CONDUIT     0.098     0  08:18      1.07    0.01    0.07
  C17                  CONDUIT     0.171     0  08:17      1.63    0.01    0.07
  C18                  CONDUIT     0.106     0  07:11      1.47    0.00    0.52
  C19                  CONDUIT     0.025     0  11:16      0.53    0.01    0.12
  C2                   CONDUIT     0.022     0  11:23      0.77    0.02    0.16
  C20                  CONDUIT     0.123     0  01:25      2.00    0.00    0.07
  C21                  CONDUIT     0.040     0  01:25      1.26    0.23    0.26
  C22                  CONDUIT     0.040     0  01:27      0.89    0.02    0.16
  C23                  CONDUIT     0.283     0  07:15      1.64    0.03    0.56
  C3                   CONDUIT     0.101     0  12:35      1.68    0.04    0.13
  C4                   CONDUIT     0.066     0  06:56      1.43    0.02    0.54
  C5                   CONDUIT     0.025     0  07:11      1.24    0.43    0.50
  C6                   CONDUIT     0.025     0  07:15      1.05    0.39    0.36
  C7                   CONDUIT     0.051     0  07:15      1.13    0.01    0.54
  C8                   CONDUIT     0.027     0  01:25      1.74    0.33    0.36
  C9                   CONDUIT     0.026     0  07:27      0.81    0.09    0.23
  V1                   ORIFICE     0.235     0  10:12                      1.00
  V2                   ORIFICE     0.025     0  11:13                      0.24
  V3                   ORIFICE     0.101     0  12:34                      0.65
  V4                   ORIFICE     0.022     0  11:21                      0.35
  V5                   ORIFICE     0.031     0  10:30                      1.00
  V6                   ORIFICE     0.075     0  09:34                      0.43
  
  
  ***************************
  Flow Classification Summary
  ***************************
  
  -------------------------------------------------------------------------------------
                      Adjusted    ---------- Fraction of Time in Flow Class ---------- 
                       /Actual         Up    Down  Sub   Sup   Up    Down  Norm  Inlet 
  Conduit               Length    Dry  Dry   Dry   Crit  Crit  Crit  Crit  Ltd   Ctrl  
  -------------------------------------------------------------------------------------
  C1                      1.00   0.00  0.00  0.00  0.20  0.80  0.00  0.00  0.93  0.00
  C10                     1.00   0.00  0.00  0.00  0.93  0.07  0.00  0.00  0.95  0.00
  C11                     1.00   0.00  0.00  0.00  0.15  0.85  0.00  0.00  1.00  0.00
  C12                     1.00   0.00  0.00  0.00  0.56  0.44  0.00  0.00  1.00  0.00
  C13                     1.00   0.00  0.00  0.00  0.91  0.09  0.00  0.00  0.92  0.00
  C14                     1.00   0.01  0.00  0.00  0.01  0.98  0.00  0.00  0.44  0.00
  C15                     1.00   0.02  0.00  0.00  0.01  0.97  0.00  0.00  0.00  0.00
  C16                     1.00   0.00  0.02  0.00  0.31  0.67  0.00  0.00  0.18  0.00
  C17                     1.00   0.00  0.00  0.00  0.14  0.86  0.00  0.00  0.98  0.00
  C18                     1.00   0.00  0.00  0.00  0.93  0.07  0.00  0.00  0.95  0.00
  C19                     1.00   0.00  0.00  0.00  1.00  0.00  0.00  0.00  1.00  0.00
  C2                      1.00   0.00  0.00  0.00  0.94  0.06  0.00  0.00  0.99  0.00
  C20                     1.00   0.00  0.00  0.00  0.54  0.46  0.00  0.00  0.99  0.00
  C21                     1.00   0.00  0.00  0.00  0.00  1.00  0.00  0.00  0.00  0.00
  C22                     1.00   0.00  0.00  0.00  0.94  0.05  0.00  0.00  1.00  0.00
  C23                     1.00   0.00  0.00  0.00  0.93  0.07  0.00  0.00  0.94  0.00
  C3                      1.00   0.00  0.00  0.00  0.05  0.94  0.00  0.00  0.06  0.00
  C4                      1.00   0.00  0.00  0.00  0.94  0.06  0.00  0.00  0.95  0.00
  C5                      1.00   0.00  0.00  0.00  0.87  0.13  0.00  0.00  0.98  0.00
  C6                      1.00   0.00  0.00  0.00  0.02  0.98  0.00  0.00  0.00  0.00
  C7                      1.00   0.00  0.00  0.00  0.93  0.07  0.00  0.00  0.94  0.00
  C8                      1.00   0.00  0.00  0.00  0.00  1.00  0.00  0.00  0.00  0.00
  C9                      1.00   0.00  0.00  0.00  1.00  0.00  0.00  0.00  1.00  0.00
  
  
  *************************
  Conduit Surcharge Summary
  *************************
  
  ----------------------------------------------------------------------------
                                                           Hours        Hours 
                         --------- Hours Full --------   Above Full   Capacity
  Conduit                Both Ends  Upstream  Dnstream   Normal Flow   Limited
  ----------------------------------------------------------------------------
  C10                         0.01      0.01     10.46      0.01         0.01
  C13                         0.01      0.01      5.05      0.01         0.01
  C18                         0.01      0.01      5.37      0.01         0.01
  C23                         0.01      0.01      9.96      0.01         0.01
  C4                          0.01      0.01     10.67      0.01         0.01
  C7                          0.01      0.01      9.21      0.01         0.01
  

  Analysis begun on:  Sun Jul 17 19:51:51 2022
  Analysis ended on:  Sun Jul 17 19:51:51 2022
  Total elapsed time: < 1 sec