
  EPA STORM WATER MANAGEMENT MODEL - VERSION 5.1 (Build 5.3.0.dev0)
  --------------------------------------------------------------

  
  *********************************************************
  NOTE: The summary statistics displayed in this report are
  based on results found at every computational time step,  
  not just on results from each reporting time step.
  *********************************************************
  
  ****************
  Analysis Options
  ****************
  Flow Units ............... CMS
  Process Models:
    Rainfall/Runoff ........ YES
    RDII ................... NO
    Snowmelt ............... NO
    Groundwater ............ NO
    Flow Routing ........... YES
    Ponding Allowed ........ NO
    Water Quality .......... NO
  Infiltration Method ...... HORTON
  Flow Routing Method ...... DYNWAVE
  Surcharge Method ......... EXTRAN
  Starting Date ............ 04/30/2009 19:05:00
  Ending Date .............. 05/01/2009 10:55:00
  Antecedent Dry Days ...... 0.0
  Report Time Step ......... 00:05:00
  Wet Time Step ............ 00:05:00
  Dry Time Step ............ 01:00:00
  Routing Time Step ........ 30.00 sec
  Variable Time Step ....... YES
  Maximum Trials ........... 8
  Number of Threads ........ 1
  Head Tolerance ........... 0.001500 m
  
  
  **************************        Volume         Depth
  Runoff Quantity Continuity     hectare-m            mm
  **************************     ---------       -------
  Total Precipitation ......         2.615        14.512
  Evaporation Loss .........         0.000         0.000
  Infiltration Loss ........         0.000         0.000
  Surface Runoff ...........         2.589        14.369
  Final Storage ............         0.027         0.149
  Continuity Error (%) .....        -0.044
  
  
  **************************        Volume        Volume
  Flow Routing Continuity        hectare-m      10^6 ltr
  **************************     ---------     ---------
  Dry Weather Inflow .......         0.384         3.836
  Wet Weather Inflow .......         2.589        25.890
  Groundwater Inflow .......         0.000         0.000
  RDII Inflow ..............         0.000         0.000
  External Inflow ..........         0.000         0.000
  External Outflow .........         1.212        12.116
  Flooding Loss ............         0.672         6.715
  Evaporation Loss .........         0.000         0.000
  Exfiltration Loss ........         0.000         0.000
  Initial Stored Volume ....         0.000         0.000
  Final Stored Volume ......         0.823         8.232
  Continuity Error (%) .....         8.958
  
  
  *************************
  Highest Continuity Errors
  *************************
  Node T2 (24.50%)
  Node T4 (16.33%)
  Node T3 (14.14%)
  Node T5 (14.10%)
  Node T6 (11.00%)
  
  
  ***************************
  Time-Step Critical Elements
  ***************************
  Link C15 (64.94%)
  
  
  ********************************
  Highest Flow Instability Indexes
  ********************************
  Link C13 (5)
  Link C20 (3)
  Link C15 (3)
  Link C18 (2)
  Link C4 (2)
  
  
  *************************
  Routing Time Step Summary
  *************************
  Minimum Time Step           :     0.01 sec
  Average Time Step           :    25.80 sec
  Maximum Time Step           :    30.00 sec
  Percent in Steady State     :     6.62
  Average Iterations per Step :     2.00
  Percent Not Converging      :     0.00
  
  
  ***************************
  Subcatchment Runoff Summary
  ***************************
  
  ------------------------------------------------------------------------------------------------------------------------------
                            Total      Total      Total      Total     Imperv       Perv      Total       Total     Peak  Runoff
                           Precip      Runon       Evap      Infil     Runoff     Runoff     Runoff      Runoff   Runoff   Coeff
  Subcatchment                 mm         mm         mm         mm         mm         mm         mm    10^6 ltr      CMS
  ------------------------------------------------------------------------------------------------------------------------------
  SC01                      15.10       0.00       0.00       0.00      15.01       0.00      15.01        4.95     0.24   0.994
  SC010                     15.10       0.00       0.00       0.00      14.98       0.00      14.98        1.76     0.08   0.992
  SC02                      13.87       0.00       0.00       0.00      13.77       0.00      13.77        3.13     0.17   0.993
  SC03                      14.29       0.00       0.00       0.00      14.22       0.00      14.22        2.56     0.13   0.995
  SC04                      13.87       0.00       0.00       0.00      13.65       0.00      13.65        0.94     0.05   0.984
  SC05                      15.10       0.00       0.00       0.00      15.00       0.00      15.00        2.34     0.11   0.994
  SC06                      14.43       0.00       0.00       0.00      14.16       0.00      14.16        4.61     0.19   0.981
  SC07                      13.87       0.00       0.00       0.00      13.66       0.00      13.66        0.65     0.03   0.985
  SC08                      14.29       0.00       0.00       0.00      14.15       0.00      14.15        3.96     0.18   0.990
  SC09                      14.43       0.00       0.00       0.00      14.27       0.00      14.27        0.98     0.04   0.989
  
  
  ******************
  Node Depth Summary
  ******************
  
  ---------------------------------------------------------------------------------
                                 Average  Maximum  Maximum  Time of Max    Reported
                                   Depth    Depth      HGL   Occurrence   Max Depth
  Node                 Type       Meters   Meters   Meters  days hr:min      Meters
  ---------------------------------------------------------------------------------
  CSO10                JUNCTION     0.14     0.23    30.23     0  05:06        0.23
  CSO7                 JUNCTION     0.09     0.14    34.14     0  08:00        0.14
  CSO8                 JUNCTION     0.15     0.25    32.25     0  09:25        0.25
  CSO9                 JUNCTION     0.12     0.17    40.17     0  05:50        0.17
  J1                   JUNCTION     0.08     0.11    34.11     0  05:06        0.11
  J10                  JUNCTION     0.11     0.17    29.17     0  09:27        0.17
  J11                  JUNCTION     0.12     0.18    31.18     0  09:28        0.18
  J12                  JUNCTION     0.46     1.00    27.00     0  11:53        1.00
  J13                  JUNCTION     0.07     0.11    29.11     0  08:00        0.11
  J14                  JUNCTION     0.12     0.15    20.15     0  13:43        0.15
  J15                  JUNCTION     0.18     0.24    15.24     0  09:34        0.24
  J16                  JUNCTION     0.08     0.12    30.12     0  05:06        0.12
  J17                  JUNCTION     0.06     0.08    20.08     0  10:26        0.08
  J18                  JUNCTION     0.07     0.10    29.10     0  05:08        0.10
  J19                  JUNCTION     0.15     0.17     8.17     0  06:03        0.17
  J2                   JUNCTION     0.07     0.08    25.08     0  12:00        0.08
  J3                   JUNCTION     0.11     0.14    18.14     0  12:28        0.14
  J4                   JUNCTION     0.11     0.17    33.17     0  08:05        0.17
  J5                   JUNCTION     0.07     0.10    32.10     0  08:04        0.10
  J6                   JUNCTION     0.06     0.07    25.07     0  12:40        0.07
  J7                   JUNCTION     0.09     0.13    39.13     0  05:53        0.13
  J8                   JUNCTION     0.11     0.16    36.16     0  05:52        0.16
  J9                   JUNCTION     0.10     0.11    29.11     0  11:55        0.11
  Out_to_WWTP          OUTFALL      0.15     0.17     6.17     0  13:31        0.17
  T1                   STORAGE      3.73     5.00    15.00     0  06:02        5.00
  T2                   STORAGE      3.10     5.00    26.00     0  09:36        5.00
  T3                   STORAGE      3.09     5.00    27.00     0  10:56        5.00
  T4                   STORAGE      2.98     5.00    32.00     0  10:14        5.00
  T5                   STORAGE      3.34     5.00    32.00     0  08:43        5.00
  T6                   STORAGE      3.56     5.00    36.00     0  06:49        5.00
  
  
  *******************
  Node Inflow Summary
  *******************
  
  -------------------------------------------------------------------------------------------------
                                  Maximum  Maximum                  Lateral       Total        Flow
                                  Lateral    Total  Time of Max      Inflow      Inflow     Balance
                                   Inflow   Inflow   Occurrence      Volume      Volume       Error
  Node                 Type           CMS      CMS  days hr:min    10^6 ltr    10^6 ltr     Percent
  -------------------------------------------------------------------------------------------------
  CSO10                JUNCTION     0.079    0.079     0  05:05         1.9         1.9      -0.172
  CSO7                 JUNCTION     0.034    0.034     0  08:00       0.938        0.94      -0.006
  CSO8                 JUNCTION     0.177    0.177     0  09:25        4.14        4.14      -0.115
  CSO9                 JUNCTION     0.043    0.043     0  05:50        1.18        1.18      -0.063
  J1                   JUNCTION     0.112    0.112     0  05:05         2.9         2.9      -0.170
  J10                  JUNCTION     0.130    0.301     0  09:26        2.94        7.09      -0.383
  J11                  JUNCTION     0.000    0.177     0  09:25           0        4.15      -0.308
  J12                  JUNCTION     0.000    0.376     0  09:28           0        10.4       8.577
  J13                  JUNCTION     0.174    0.174     0  08:00         3.6        3.61      -0.263
  J14                  JUNCTION     0.000    0.124     0  11:08           0           5       0.149
  J15                  JUNCTION     0.000    0.513     0  09:31           0        16.5       0.313
  J16                  JUNCTION     0.238    0.238     0  05:05        5.51         5.5      -0.253
  J17                  JUNCTION     0.000    0.033     0  09:36           0        1.35       0.460
  J18                  JUNCTION     0.000    0.079     0  05:06           0         1.9      -0.362
  J19                  JUNCTION     0.000    0.271     0  06:03           0        12.1       0.101
  J2                   JUNCTION     0.000    0.039     0  08:43           0        1.67       0.311
  J3                   JUNCTION     0.000    0.191     0  11:47           0        7.77       0.489
  J4                   JUNCTION     0.000    0.034     0  08:01           0        0.94       0.662
  J5                   JUNCTION     0.047    0.079     0  08:03        1.07        2.01       0.050
  J6                   JUNCTION     0.000    0.028     0  10:14           0        1.11       0.358
  J7                   JUNCTION     0.000    0.043     0  05:50           0        1.18      -0.016
  J8                   JUNCTION     0.191    0.233     0  05:50        5.55        6.72      -0.066
  J9                   JUNCTION     0.000    0.075     0  06:49           0        3.34       0.488
  Out_to_WWTP          OUTFALL      0.000    0.271     0  06:04           0        12.1       0.000
  T1                   STORAGE      0.000    0.502     0  09:34           0        16.4       4.851
  T2                   STORAGE      0.000    0.173     0  08:00           0        3.62      32.455
  T3                   STORAGE      0.000    0.328     0  05:08           0        9.61      16.472
  T4                   STORAGE      0.000    0.079     0  08:04           0        2.01      19.515
  T5                   STORAGE      0.000    0.111     0  05:06           0         2.9      16.415
  T6                   STORAGE      0.000    0.232     0  05:52           0        6.73      12.358
  
  
  **********************
  Node Surcharge Summary
  **********************
  
  No nodes were surcharged.
  
  
  *********************
  Node Flooding Summary
  *********************
  
  Flooding refers to all water that overflows a node, whether it ponds or not.
  --------------------------------------------------------------------------
                                                             Total   Maximum
                                 Maximum   Time of Max       Flood    Ponded
                        Hours       Rate    Occurrence      Volume     Depth
  Node                 Flooded       CMS   days hr:min    10^6 ltr    Meters
  --------------------------------------------------------------------------
  T1                      7.10     0.231      0  09:34       2.911     0.000
  T2                      3.42     0.094      0  09:36       0.452     0.000
  T3                      2.39     0.149      0  12:00       0.698     0.000
  T4                      2.62     0.018      0  10:14       0.117     0.000
  T5                      3.75     0.069      0  09:31       0.410     0.000
  T6                      6.34     0.142      0  09:06       2.128     0.000
  
  
  **********************
  Storage Volume Summary
  **********************
  
  --------------------------------------------------------------------------------------------------
                         Average     Avg  Evap Exfil       Maximum     Max    Time of Max    Maximum
                          Volume    Pcnt  Pcnt  Pcnt        Volume    Pcnt     Occurrence    Outflow
  Storage Unit           1000 m3    Full  Loss  Loss       1000 m3    Full    days hr:min        CMS
  --------------------------------------------------------------------------------------------------
  T1                       0.522      75     0     0         0.700     100       0  06:02      0.271
  T2                       0.620      62     0     0         1.000     100       0  09:36      0.033
  T3                       1.606      62     0     0         2.600     100       0  10:56      0.124
  T4                       0.298      60     0     0         0.500     100       0  10:14      0.028
  T5                       0.334      67     0     0         0.500     100       0  08:43      0.039
  T6                       0.427      71     0     0         0.600     100       0  06:49      0.075
  
  
  ***********************
  Outfall Loading Summary
  ***********************
  
  -----------------------------------------------------------
                         Flow       Avg       Max       Total
                         Freq      Flow      Flow      Volume
  Outfall Node           Pcnt       CMS       CMS    10^6 ltr
  -----------------------------------------------------------
  Out_to_WWTP           99.50     0.219     0.271      12.116
  -----------------------------------------------------------
  System                99.50     0.219     0.271      12.116
  
  
  ********************
  Link Flow Summary
  ********************
  
  -----------------------------------------------------------------------------
                                 Maximum  Time of Max   Maximum    Max/    Max/
                                  |Flow|   Occurrence   |Veloc|    Full    Full
  Link                 Type          CMS  days hr:min     m/sec    Flow   Depth
  -----------------------------------------------------------------------------
  C1                   CONDUIT     0.039     0  09:23      0.91    0.01    0.11
  C10                  CONDUIT     0.232     0  05:52      1.62    0.02    0.55
  C11                  CONDUIT     0.191     0  12:28      1.70    0.01    0.09
  C12                  CONDUIT     0.075     0  07:56      0.88    0.01    0.28
  C13                  CONDUIT     0.328     0  05:08      1.34    0.02    0.75
  C14                  CONDUIT     0.271     0  06:04      2.08    0.02    0.09
  C15                  CONDUIT     0.177     0  09:25      2.32    0.56    0.48
  C16                  CONDUIT     0.176     0  09:28      1.29    0.02    0.09
  C17                  CONDUIT     0.300     0  09:28      2.07    0.01    0.28
  C18                  CONDUIT     0.173     0  08:00      3.92    0.01    0.53
  C19                  CONDUIT     0.033     0  10:26      0.59    0.01    0.16
  C2                   CONDUIT     0.028     0  12:00      0.85    0.03    0.18
  C20                  CONDUIT     0.236     0  05:06      3.28    0.01    0.09
  C21                  CONDUIT     0.079     0  05:06      1.52    0.45    0.37
  C22                  CONDUIT     0.078     0  05:08      1.08    0.04    0.21
  C23                  CONDUIT     0.502     0  09:34      1.22    0.06    0.58
  C3                   CONDUIT     0.124     0  11:47      1.78    0.05    0.14
  C4                   CONDUIT     0.111     0  05:06      3.48    0.03    0.56
  C5                   CONDUIT     0.034     0  08:01      1.20    0.57    0.59
  C6                   CONDUIT     0.033     0  08:06      1.11    0.53    0.44
  C7                   CONDUIT     0.079     0  08:04      1.41    0.02    0.55
  C8                   CONDUIT     0.043     0  05:50      1.16    0.55    0.48
  C9                   CONDUIT     0.043     0  05:53      0.91    0.15    0.29
  V1                   ORIFICE     0.271     0  06:03                      1.00
  V2                   ORIFICE     0.033     0  09:36                      0.24
  V3                   ORIFICE     0.124     0  11:08                      0.65
  V4                   ORIFICE     0.028     0  10:14                      0.35
  V5                   ORIFICE     0.039     0  08:43                      1.00
  V6                   ORIFICE     0.075     0  06:49                      0.43
  
  
  ***************************
  Flow Classification Summary
  ***************************
  
  -------------------------------------------------------------------------------------
                      Adjusted    ---------- Fraction of Time in Flow Class ---------- 
                       /Actual         Up    Down  Sub   Sup   Up    Down  Norm  Inlet 
  Conduit               Length    Dry  Dry   Dry   Crit  Crit  Crit  Crit  Ltd   Ctrl  
  -------------------------------------------------------------------------------------
  C1                      1.00   0.00  0.00  0.00  0.23  0.77  0.00  0.00  0.97  0.00
  C10                     1.00   0.00  0.00  0.00  0.98  0.02  0.00  0.00  0.99  0.00
  C11                     1.00   0.00  0.00  0.00  0.17  0.83  0.00  0.00  1.00  0.00
  C12                     1.00   0.00  0.00  0.00  0.98  0.02  0.00  0.00  1.00  0.00
  C13                     1.00   0.00  0.00  0.00  0.94  0.06  0.00  0.00  0.50  0.00
  C14                     1.00   0.00  0.00  0.00  0.00  0.99  0.00  0.00  0.32  0.00
  C15                     1.00   0.01  0.00  0.00  0.00  0.99  0.00  0.00  0.00  0.00
  C16                     1.00   0.00  0.01  0.00  0.16  0.82  0.00  0.00  0.17  0.00
  C17                     1.00   0.00  0.00  0.00  0.42  0.58  0.00  0.00  0.99  0.00
  C18                     1.00   0.00  0.00  0.00  0.97  0.03  0.00  0.00  0.99  0.00
  C19                     1.00   0.00  0.00  0.00  1.00  0.00  0.00  0.00  1.00  0.00
  C2                      1.00   0.00  0.00  0.00  0.94  0.06  0.00  0.00  0.99  0.00
  C20                     1.00   0.00  0.00  0.00  0.21  0.79  0.00  0.00  0.99  0.00
  C21                     1.00   0.00  0.00  0.00  0.00  1.00  0.00  0.00  0.00  0.00
  C22                     1.00   0.00  0.00  0.00  0.96  0.04  0.00  0.00  1.00  0.00
  C23                     1.00   0.00  0.00  0.00  0.94  0.06  0.00  0.00  0.97  0.00
  C3                      1.00   0.00  0.00  0.00  0.03  0.97  0.00  0.00  0.05  0.00
  C4                      1.00   0.00  0.00  0.00  0.98  0.02  0.00  0.00  0.99  0.00
  C5                      1.00   0.00  0.00  0.00  0.87  0.13  0.00  0.00  0.99  0.00
  C6                      1.00   0.00  0.00  0.00  0.00  1.00  0.00  0.00  0.00  0.00
  C7                      1.00   0.00  0.00  0.00  0.97  0.03  0.00  0.00  0.98  0.00
  C8                      1.00   0.00  0.00  0.00  0.00  1.00  0.00  0.00  0.00  0.00
  C9                      1.00   0.00  0.00  0.00  1.00  0.00  0.00  0.00  1.00  0.00
  
  
  *************************
  Conduit Surcharge Summary
  *************************
  
  ----------------------------------------------------------------------------
                                                           Hours        Hours 
                         --------- Hours Full --------   Above Full   Capacity
  Conduit                Both Ends  Upstream  Dnstream   Normal Flow   Limited
  ----------------------------------------------------------------------------
  C10                         0.01      0.01     11.26      0.01         0.01
  C13                         0.01      0.01     10.20      0.01         0.01
  C18                         0.01      0.01     10.13      0.01         0.01
  C23                         0.01      0.01     12.39      0.01         0.01
  C4                          0.01      0.01     12.51      0.01         0.01
  C7                          0.01      0.01     11.17      0.01         0.01
  

  Analysis begun on:  Sun Jul 17 21:30:24 2022
  Analysis ended on:  Sun Jul 17 21:30:24 2022
  Total elapsed time: < 1 sec