
  EPA STORM WATER MANAGEMENT MODEL - VERSION 5.1 (Build 5.3.0.dev0)
  --------------------------------------------------------------

  
  *********************************************************
  NOTE: The summary statistics displayed in this report are
  based on results found at every computational time step,  
  not just on results from each reporting time step.
  *********************************************************
  
  ****************
  Analysis Options
  ****************
  Flow Units ............... CMS
  Process Models:
    Rainfall/Runoff ........ YES
    RDII ................... NO
    Snowmelt ............... NO
    Groundwater ............ NO
    Flow Routing ........... YES
    Ponding Allowed ........ NO
    Water Quality .......... NO
  Infiltration Method ...... HORTON
  Flow Routing Method ...... DYNWAVE
  Surcharge Method ......... EXTRAN
  Starting Date ............ 01/07/2008 13:55:00
  Ending Date .............. 01/08/2008 00:35:00
  Antecedent Dry Days ...... 0.0
  Report Time Step ......... 00:05:00
  Wet Time Step ............ 00:05:00
  Dry Time Step ............ 01:00:00
  Routing Time Step ........ 30.00 sec
  Variable Time Step ....... YES
  Maximum Trials ........... 8
  Number of Threads ........ 1
  Head Tolerance ........... 0.001500 m
  
  
  **************************        Volume         Depth
  Runoff Quantity Continuity     hectare-m            mm
  **************************     ---------       -------
  Total Precipitation ......         1.626         9.024
  Evaporation Loss .........         0.000         0.000
  Infiltration Loss ........         0.000         0.000
  Surface Runoff ...........         1.605         8.907
  Final Storage ............         0.023         0.125
  Continuity Error (%) .....        -0.090
  
  
  **************************        Volume        Volume
  Flow Routing Continuity        hectare-m      10^6 ltr
  **************************     ---------     ---------
  Dry Weather Inflow .......         0.300         3.004
  Wet Weather Inflow .......         1.605        16.052
  Groundwater Inflow .......         0.000         0.000
  RDII Inflow ..............         0.000         0.000
  External Inflow ..........         0.000         0.000
  External Outflow .........         0.859         8.592
  Flooding Loss ............         0.216         2.157
  Evaporation Loss .........         0.000         0.000
  Exfiltration Loss ........         0.000         0.000
  Initial Stored Volume ....         0.000         0.000
  Final Stored Volume ......         0.649         6.492
  Continuity Error (%) .....         9.527
  
  
  *************************
  Highest Continuity Errors
  *************************
  Node T2 (28.78%)
  Node T4 (16.89%)
  Node T3 (16.84%)
  Node T5 (15.84%)
  Node T6 (10.86%)
  
  
  ***************************
  Time-Step Critical Elements
  ***************************
  Link C15 (59.79%)
  
  
  ********************************
  Highest Flow Instability Indexes
  ********************************
  Link C13 (8)
  Link C20 (2)
  Link C18 (2)
  Link C15 (2)
  Link C21 (2)
  
  
  *************************
  Routing Time Step Summary
  *************************
  Minimum Time Step           :     0.20 sec
  Average Time Step           :    25.20 sec
  Maximum Time Step           :    30.00 sec
  Percent in Steady State     :     1.57
  Average Iterations per Step :     2.01
  Percent Not Converging      :     0.00
  
  
  ***************************
  Subcatchment Runoff Summary
  ***************************
  
  ------------------------------------------------------------------------------------------------------------------------------
                            Total      Total      Total      Total     Imperv       Perv      Total       Total     Peak  Runoff
                           Precip      Runon       Evap      Infil     Runoff     Runoff     Runoff      Runoff   Runoff   Coeff
  Subcatchment                 mm         mm         mm         mm         mm         mm         mm    10^6 ltr      CMS
  ------------------------------------------------------------------------------------------------------------------------------
  SC01                       7.38       0.00       0.00       0.00       7.30       0.00       7.30        2.41     0.19   0.990
  SC010                      7.38       0.00       0.00       0.00       7.28       0.00       7.28        0.86     0.06   0.986
  SC02                      10.40       0.00       0.00       0.00      10.31       0.00      10.31        2.35     0.20   0.992
  SC03                       9.64       0.00       0.00       0.00       9.58       0.00       9.58        1.72     0.16   0.994
  SC04                      10.40       0.00       0.00       0.00      10.22       0.00      10.22        0.71     0.06   0.983
  SC05                       7.38       0.00       0.00       0.00       7.30       0.00       7.30        1.14     0.09   0.989
  SC06                       9.62       0.00       0.00       0.00       9.40       0.00       9.40        3.06     0.20   0.977
  SC07                      10.40       0.00       0.00       0.00      10.22       0.00      10.22        0.49     0.04   0.983
  SC08                       9.64       0.00       0.00       0.00       9.53       0.00       9.53        2.67     0.19   0.989
  SC09                       9.62       0.00       0.00       0.00       9.49       0.00       9.49        0.65     0.05   0.986
  
  
  ******************
  Node Depth Summary
  ******************
  
  ---------------------------------------------------------------------------------
                                 Average  Maximum  Maximum  Time of Max    Reported
                                   Depth    Depth      HGL   Occurrence   Max Depth
  Node                 Type       Meters   Meters   Meters  days hr:min      Meters
  ---------------------------------------------------------------------------------
  CSO10                JUNCTION     0.12     0.20    30.20     0  03:35        0.20
  CSO7                 JUNCTION     0.10     0.17    34.17     0  01:30        0.17
  CSO8                 JUNCTION     0.15     0.28    32.28     0  00:40        0.27
  CSO9                 JUNCTION     0.11     0.20    40.20     0  05:11        0.19
  J1                   JUNCTION     0.07     0.11    34.11     0  00:51        0.11
  J10                  JUNCTION     0.11     0.19    29.19     0  00:43        0.18
  J11                  JUNCTION     0.11     0.19    31.19     0  00:46        0.19
  J12                  JUNCTION     0.31     0.60    26.60     0  06:27        0.59
  J13                  JUNCTION     0.07     0.13    29.13     0  01:16        0.13
  J14                  JUNCTION     0.13     0.15    20.15     0  06:32        0.15
  J15                  JUNCTION     0.18     0.22    15.22     0  03:39        0.22
  J16                  JUNCTION     0.07     0.11    30.11     0  00:51        0.11
  J17                  JUNCTION     0.07     0.08    20.08     0  06:11        0.08
  J18                  JUNCTION     0.06     0.09    29.09     0  00:56        0.09
  J19                  JUNCTION     0.15     0.17     8.17     0  03:57        0.17
  J2                   JUNCTION     0.06     0.08    25.08     0  06:03        0.08
  J3                   JUNCTION     0.12     0.13    18.13     0  06:16        0.13
  J4                   JUNCTION     0.12     0.20    33.20     0  01:32        0.20
  J5                   JUNCTION     0.07     0.11    32.11     0  01:31        0.11
  J6                   JUNCTION     0.06     0.07    25.07     0  06:15        0.07
  J7                   JUNCTION     0.09     0.14    39.14     0  05:16        0.14
  J8                   JUNCTION     0.11     0.17    36.17     0  05:15        0.17
  J9                   JUNCTION     0.10     0.11    29.11     0  04:33        0.11
  Out_to_WWTP          OUTFALL      0.15     0.17     6.17     0  06:40        0.17
  T1                   STORAGE      3.67     5.00    15.00     0  03:56        5.00
  T2                   STORAGE      3.51     5.00    26.00     0  05:29        5.00
  T3                   STORAGE      3.25     4.60    26.60     0  06:23        4.60
  T4                   STORAGE      3.42     5.00    32.00     0  05:26        5.00
  T5                   STORAGE      2.75     4.26    31.26     0  06:00        4.26
  T6                   STORAGE      3.79     5.00    36.00     0  03:24        5.00
  
  
  *******************
  Node Inflow Summary
  *******************
  
  -------------------------------------------------------------------------------------------------
                                  Maximum  Maximum                  Lateral       Total        Flow
                                  Lateral    Total  Time of Max      Inflow      Inflow     Balance
                                   Inflow   Inflow   Occurrence      Volume      Volume       Error
  Node                 Type           CMS      CMS  days hr:min    10^6 ltr    10^6 ltr     Percent
  -------------------------------------------------------------------------------------------------
  CSO10                JUNCTION     0.064    0.064     0  03:35       0.964       0.964      -0.003
  CSO7                 JUNCTION     0.046    0.046     0  01:30       0.712       0.712       0.013
  CSO8                 JUNCTION     0.202    0.202     0  00:40        2.82        2.82      -0.009
  CSO9                 JUNCTION     0.052    0.052     0  05:10       0.808       0.808      -0.007
  J1                   JUNCTION     0.104    0.104     0  00:50        1.58        1.58      -0.185
  J10                  JUNCTION     0.171    0.361     0  00:41        2.02        4.85      -0.212
  J11                  JUNCTION     0.000    0.202     0  00:41           0        2.82      -0.127
  J12                  JUNCTION     0.000    0.384     0  05:12           0         7.3       2.233
  J13                  JUNCTION     0.216    0.216     0  01:15        2.71        2.71      -0.380
  J14                  JUNCTION     0.000    0.119     0  06:23           0        3.72       0.188
  J15                  JUNCTION     0.000    0.432     0  03:36           0        10.5       0.639
  J16                  JUNCTION     0.209    0.209     0  00:50        2.84        2.84      -0.138
  J17                  JUNCTION     0.000    0.033     0  05:29           0        1.05       0.572
  J18                  JUNCTION     0.000    0.063     0  03:36           0       0.964      -0.208
  J19                  JUNCTION     0.000    0.271     0  03:57           0         8.6       0.130
  J2                   JUNCTION     0.000    0.036     0  06:01           0        1.09       0.390
  J3                   JUNCTION     0.000    0.183     0  06:14           0        5.67       0.622
  J4                   JUNCTION     0.000    0.046     0  01:30           0       0.712       0.034
  J5                   JUNCTION     0.059    0.104     0  01:30       0.805        1.52      -0.140
  J6                   JUNCTION     0.000    0.028     0  05:27           0       0.867       0.415
  J7                   JUNCTION     0.000    0.052     0  05:11           0       0.808      -0.082
  J8                   JUNCTION     0.229    0.280     0  05:15        3.79         4.6      -0.175
  J9                   JUNCTION     0.000    0.075     0  03:24           0        2.45       0.604
  Out_to_WWTP          OUTFALL      0.000    0.271     0  03:58           0        8.59       0.000
  T1                   STORAGE      0.000    0.419     0  03:39           0        10.4       6.145
  T2                   STORAGE      0.000    0.215     0  01:16           0        2.72      40.413
  T3                   STORAGE      0.000    0.379     0  00:47           0        7.14      20.249
  T4                   STORAGE      0.000    0.103     0  01:31           0        1.52      20.316
  T5                   STORAGE      0.000    0.104     0  00:51           0        1.58      18.822
  T6                   STORAGE      0.000    0.279     0  05:16           0        4.61      12.181
  
  
  **********************
  Node Surcharge Summary
  **********************
  
  No nodes were surcharged.
  
  
  *********************
  Node Flooding Summary
  *********************
  
  Flooding refers to all water that overflows a node, whether it ponds or not.
  --------------------------------------------------------------------------
                                                             Total   Maximum
                                 Maximum   Time of Max       Flood    Ponded
                        Hours       Rate    Occurrence      Volume     Depth
  Node                 Flooded       CMS   days hr:min    10^6 ltr    Meters
  --------------------------------------------------------------------------
  T1                      2.45     0.135      0  05:13       0.713     0.000
  T2                      0.71     0.058      0  05:29       0.077     0.000
  T4                      0.81     0.032      0  05:26       0.049     0.000
  T6                      3.16     0.203      0  05:16       1.315     0.000
  
  
  **********************
  Storage Volume Summary
  **********************
  
  --------------------------------------------------------------------------------------------------
                         Average     Avg  Evap Exfil       Maximum     Max    Time of Max    Maximum
                          Volume    Pcnt  Pcnt  Pcnt        Volume    Pcnt     Occurrence    Outflow
  Storage Unit           1000 m3    Full  Loss  Loss       1000 m3    Full    days hr:min        CMS
  --------------------------------------------------------------------------------------------------
  T1                       0.513      73     0     0         0.700     100       0  03:56      0.271
  T2                       0.703      70     0     0         1.000     100       0  05:29      0.033
  T3                       1.688      65     0     0         2.393      92       0  06:23      0.119
  T4                       0.342      68     0     0         0.500     100       0  05:26      0.028
  T5                       0.275      55     0     0         0.426      85       0  06:00      0.036
  T6                       0.455      76     0     0         0.600     100       0  03:24      0.075
  
  
  ***********************
  Outfall Loading Summary
  ***********************
  
  -----------------------------------------------------------
                         Flow       Avg       Max       Total
                         Freq      Flow      Flow      Volume
  Outfall Node           Pcnt       CMS       CMS    10^6 ltr
  -----------------------------------------------------------
  Out_to_WWTP           99.41     0.221     0.271       8.592
  -----------------------------------------------------------
  System                99.41     0.221     0.271       8.592
  
  
  ********************
  Link Flow Summary
  ********************
  
  -----------------------------------------------------------------------------
                                 Maximum  Time of Max   Maximum    Max/    Max/
                                  |Flow|   Occurrence   |Veloc|    Full    Full
  Link                 Type          CMS  days hr:min     m/sec    Flow   Depth
  -----------------------------------------------------------------------------
  C1                   CONDUIT     0.036     0  06:04      0.95    0.01    0.10
  C10                  CONDUIT     0.279     0  05:16      1.81    0.03    0.56
  C11                  CONDUIT     0.183     0  06:16      1.70    0.01    0.09
  C12                  CONDUIT     0.075     0  04:33      0.81    0.01    0.18
  C13                  CONDUIT     0.379     0  00:47      2.26    0.02    0.65
  C14                  CONDUIT     0.271     0  03:58      2.08    0.02    0.09
  C15                  CONDUIT     0.202     0  00:41      2.43    0.64    0.51
  C16                  CONDUIT     0.200     0  00:46      1.33    0.02    0.09
  C17                  CONDUIT     0.360     0  00:43      2.29    0.02    0.17
  C18                  CONDUIT     0.215     0  01:16      3.17    0.01    0.53
  C19                  CONDUIT     0.033     0  06:12      0.62    0.01    0.15
  C2                   CONDUIT     0.028     0  06:15      0.86    0.03    0.17
  C20                  CONDUIT     0.207     0  00:51      3.22    0.01    0.08
  C21                  CONDUIT     0.063     0  03:36      1.44    0.36    0.33
  C22                  CONDUIT     0.062     0  00:56      1.02    0.03    0.19
  C23                  CONDUIT     0.419     0  03:39      1.39    0.05    0.57
  C3                   CONDUIT     0.119     0  06:24      1.76    0.05    0.14
  C4                   CONDUIT     0.104     0  00:51      3.10    0.03    0.55
  C5                   CONDUIT     0.046     0  01:30      1.34    0.78    0.73
  C6                   CONDUIT     0.045     0  01:33      1.21    0.72    0.52
  C7                   CONDUIT     0.103     0  01:31      1.52    0.03    0.55
  C8                   CONDUIT     0.052     0  05:11      1.23    0.65    0.53
  C9                   CONDUIT     0.051     0  05:16      0.99    0.17    0.32
  V1                   ORIFICE     0.271     0  03:57                      1.00
  V2                   ORIFICE     0.033     0  05:29                      0.24
  V3                   ORIFICE     0.119     0  06:23                      0.65
  V4                   ORIFICE     0.028     0  05:27                      0.35
  V5                   ORIFICE     0.036     0  06:01                      1.00
  V6                   ORIFICE     0.075     0  03:24                      0.43
  
  
  ***************************
  Flow Classification Summary
  ***************************
  
  -------------------------------------------------------------------------------------
                      Adjusted    ---------- Fraction of Time in Flow Class ---------- 
                       /Actual         Up    Down  Sub   Sup   Up    Down  Norm  Inlet 
  Conduit               Length    Dry  Dry   Dry   Crit  Crit  Crit  Crit  Ltd   Ctrl  
  -------------------------------------------------------------------------------------
  C1                      1.00   0.00  0.00  0.00  0.94  0.06  0.00  0.00  0.97  0.00
  C10                     1.00   0.00  0.00  0.00  0.97  0.03  0.00  0.00  0.99  0.00
  C11                     1.00   0.00  0.00  0.00  0.18  0.82  0.00  0.00  1.00  0.00
  C12                     1.00   0.00  0.00  0.00  1.00  0.00  0.00  0.00  1.00  0.00
  C13                     1.00   0.00  0.00  0.00  0.94  0.06  0.00  0.00  0.40  0.00
  C14                     1.00   0.00  0.00  0.00  0.01  0.99  0.00  0.00  0.24  0.00
  C15                     1.00   0.00  0.00  0.00  0.00  1.00  0.00  0.00  0.00  0.00
  C16                     1.00   0.00  0.00  0.00  0.35  0.65  0.00  0.00  0.40  0.00
  C17                     1.00   0.00  0.00  0.00  0.47  0.53  0.00  0.00  0.96  0.00
  C18                     1.00   0.00  0.00  0.00  0.95  0.05  0.00  0.00  0.98  0.00
  C19                     1.00   0.00  0.00  0.00  1.00  0.00  0.00  0.00  1.00  0.00
  C2                      1.00   0.00  0.00  0.00  0.31  0.69  0.00  0.00  0.98  0.00
  C20                     1.00   0.00  0.00  0.00  0.40  0.60  0.00  0.00  0.99  0.00
  C21                     1.00   0.00  0.00  0.00  0.00  1.00  0.00  0.00  0.00  0.00
  C22                     1.00   0.00  0.00  0.00  0.93  0.07  0.00  0.00  1.00  0.00
  C23                     1.00   0.00  0.00  0.00  0.93  0.06  0.00  0.00  0.96  0.00
  C3                      1.00   0.00  0.00  0.00  0.03  0.97  0.00  0.00  0.03  0.00
  C4                      1.00   0.00  0.00  0.00  0.97  0.03  0.00  0.00  0.99  0.00
  C5                      1.00   0.00  0.00  0.00  0.93  0.07  0.00  0.00  0.99  0.00
  C6                      1.00   0.00  0.00  0.00  0.01  0.99  0.00  0.00  0.00  0.00
  C7                      1.00   0.00  0.00  0.00  0.96  0.04  0.00  0.00  0.98  0.00
  C8                      1.00   0.00  0.00  0.00  0.18  0.82  0.00  0.00  0.00  0.00
  C9                      1.00   0.00  0.00  0.00  1.00  0.00  0.00  0.00  1.00  0.00
  
  
  *************************
  Conduit Surcharge Summary
  *************************
  
  ----------------------------------------------------------------------------
                                                           Hours        Hours 
                         --------- Hours Full --------   Above Full   Capacity
  Conduit                Both Ends  Upstream  Dnstream   Normal Flow   Limited
  ----------------------------------------------------------------------------
  C10                         0.01      0.01      9.52      0.01         0.01
  C13                         0.01      0.01      8.44      0.01         0.01
  C18                         0.01      0.01      8.99      0.01         0.01
  C23                         0.01      0.01      9.39      0.01         0.01
  C4                          0.01      0.01      9.48      0.01         0.01
  C7                          0.01      0.01      9.46      0.01         0.01
  

  Analysis begun on:  Sun Jul 17 20:37:10 2022
  Analysis ended on:  Sun Jul 17 20:37:10 2022
  Total elapsed time: < 1 sec