
  EPA STORM WATER MANAGEMENT MODEL - VERSION 5.1 (Build 5.3.0.dev0)
  --------------------------------------------------------------

  
  *********************************************************
  NOTE: The summary statistics displayed in this report are
  based on results found at every computational time step,  
  not just on results from each reporting time step.
  *********************************************************
  
  ****************
  Analysis Options
  ****************
  Flow Units ............... CMS
  Process Models:
    Rainfall/Runoff ........ YES
    RDII ................... NO
    Snowmelt ............... NO
    Groundwater ............ NO
    Flow Routing ........... YES
    Ponding Allowed ........ NO
    Water Quality .......... NO
  Infiltration Method ...... HORTON
  Flow Routing Method ...... DYNWAVE
  Surcharge Method ......... EXTRAN
  Starting Date ............ 07/08/2008 18:15:00
  Ending Date .............. 07/09/2008 03:10:00
  Antecedent Dry Days ...... 0.0
  Report Time Step ......... 00:05:00
  Wet Time Step ............ 00:05:00
  Dry Time Step ............ 01:00:00
  Routing Time Step ........ 30.00 sec
  Variable Time Step ....... YES
  Maximum Trials ........... 8
  Number of Threads ........ 1
  Head Tolerance ........... 0.001500 m
  
  
  **************************        Volume         Depth
  Runoff Quantity Continuity     hectare-m            mm
  **************************     ---------       -------
  Total Precipitation ......         2.155        11.961
  Evaporation Loss .........         0.000         0.000
  Infiltration Loss ........         0.000         0.000
  Surface Runoff ...........         2.129        11.816
  Final Storage ............         0.033         0.182
  Continuity Error (%) .....        -0.307
  
  
  **************************        Volume        Volume
  Flow Routing Continuity        hectare-m      10^6 ltr
  **************************     ---------     ---------
  Dry Weather Inflow .......         0.145         1.453
  Wet Weather Inflow .......         2.130        21.299
  Groundwater Inflow .......         0.000         0.000
  RDII Inflow ..............         0.000         0.000
  External Inflow ..........         0.000         0.000
  External Outflow .........         0.718         7.182
  Flooding Loss ............         0.541         5.413
  Evaporation Loss .........         0.000         0.000
  Exfiltration Loss ........         0.000         0.000
  Initial Stored Volume ....         0.000         0.000
  Final Stored Volume ......         0.779         7.788
  Continuity Error (%) .....        10.417
  
  
  *************************
  Highest Continuity Errors
  *************************
  Node T2 (25.78%)
  Node T5 (21.91%)
  Node T3 (16.93%)
  Node T4 (16.77%)
  Node T6 (16.04%)
  
  
  ***************************
  Time-Step Critical Elements
  ***************************
  Link C15 (61.64%)
  Link C21 (4.88%)
  
  
  ********************************
  Highest Flow Instability Indexes
  ********************************
  Link C13 (7)
  Link C21 (3)
  Link C20 (2)
  Link C4 (2)
  Link C23 (2)
  
  
  *************************
  Routing Time Step Summary
  *************************
  Minimum Time Step           :     0.60 sec
  Average Time Step           :    22.79 sec
  Maximum Time Step           :    30.00 sec
  Percent in Steady State     :     3.52
  Average Iterations per Step :     2.64
  Percent Not Converging      :     2.21
  
  
  ***************************
  Subcatchment Runoff Summary
  ***************************
  
  ------------------------------------------------------------------------------------------------------------------------------
                            Total      Total      Total      Total     Imperv       Perv      Total       Total     Peak  Runoff
                           Precip      Runon       Evap      Infil     Runoff     Runoff     Runoff      Runoff   Runoff   Coeff
  Subcatchment                 mm         mm         mm         mm         mm         mm         mm    10^6 ltr      CMS
  ------------------------------------------------------------------------------------------------------------------------------
  SC01                      11.25       0.00       0.00       0.00      11.18       0.00      11.18        3.69     0.70   0.994
  SC010                     11.25       0.00       0.00       0.00      11.12       0.00      11.12        1.31     0.21   0.989
  SC02                      13.79       0.00       0.00       0.00      13.69       0.00      13.69        3.11     0.41   0.992
  SC03                      14.16       0.00       0.00       0.00      14.13       0.00      14.13        2.54     0.49   0.998
  SC04                      13.79       0.00       0.00       0.00      13.51       0.00      13.51        0.93     0.09   0.980
  SC05                      11.25       0.00       0.00       0.00      11.16       0.00      11.16        1.74     0.32   0.992
  SC06                       8.89       0.00       0.00       0.00       8.59       0.00       8.59        2.80     0.24   0.966
  SC07                      13.79       0.00       0.00       0.00      13.51       0.00      13.51        0.64     0.06   0.980
  SC08                      14.16       0.00       0.00       0.00      14.02       0.00      14.02        3.93     0.52   0.990
  SC09                       8.89       0.00       0.00       0.00       8.72       0.00       8.72        0.60     0.06   0.981
  
  
  ******************
  Node Depth Summary
  ******************
  
  ---------------------------------------------------------------------------------
                                 Average  Maximum  Maximum  Time of Max    Reported
                                   Depth    Depth      HGL   Occurrence   Max Depth
  Node                 Type       Meters   Meters   Meters  days hr:min      Meters
  ---------------------------------------------------------------------------------
  CSO10                JUNCTION     0.17     1.00    31.00     0  05:19        1.00
  CSO7                 JUNCTION     0.16     1.19    35.19     0  02:09        1.16
  CSO8                 JUNCTION     0.40     2.00    34.00     0  01:54        2.00
  CSO9                 JUNCTION     0.12     0.24    40.24     0  02:00        0.23
  J1                   JUNCTION     0.08     0.19    34.19     0  05:20        0.18
  J10                  JUNCTION     0.14     0.29    29.29     0  01:57        0.29
  J11                  JUNCTION     0.15     0.30    31.30     0  02:11        0.30
  J12                  JUNCTION     0.63     1.00    27.00     0  05:06        1.00
  J13                  JUNCTION     0.09     0.17    29.17     0  02:05        0.17
  J14                  JUNCTION     0.13     0.15    20.15     0  03:59        0.15
  J15                  JUNCTION     0.19     0.34    15.34     0  05:24        0.34
  J16                  JUNCTION     0.09     0.20    30.20     0  05:20        0.20
  J17                  JUNCTION     0.07     0.08    20.08     0  04:50        0.08
  J18                  JUNCTION     0.07     0.16    29.16     0  05:21        0.16
  J19                  JUNCTION     0.15     0.17     8.17     0  02:48        0.17
  J2                   JUNCTION     0.06     0.08    25.08     0  05:57        0.08
  J3                   JUNCTION     0.12     0.14    18.14     0  05:36        0.14
  J4                   JUNCTION     0.16     0.81    33.81     0  02:09        0.74
  J5                   JUNCTION     0.08     0.14    32.14     0  02:15        0.14
  J6                   JUNCTION     0.06     0.07    25.07     0  04:56        0.07
  J7                   JUNCTION     0.09     0.16    39.16     0  02:04        0.16
  J8                   JUNCTION     0.12     0.18    36.18     0  02:05        0.18
  J9                   JUNCTION     0.09     0.11    29.11     0  05:41        0.11
  Out_to_WWTP          OUTFALL      0.15     0.17     6.17     0  06:41        0.17
  T1                   STORAGE      3.68     5.00    15.00     0  02:47        5.00
  T2                   STORAGE      3.56     5.00    26.00     0  03:40        5.00
  T3                   STORAGE      3.75     5.00    27.00     0  03:58        5.00
  T4                   STORAGE      3.43     5.00    32.00     0  03:41        5.00
  T5                   STORAGE      3.03     5.00    32.00     0  05:18        5.00
  T6                   STORAGE      3.38     5.00    36.00     0  03:31        5.00
  
  
  *******************
  Node Inflow Summary
  *******************
  
  -------------------------------------------------------------------------------------------------
                                  Maximum  Maximum                  Lateral       Total        Flow
                                  Lateral    Total  Time of Max      Inflow      Inflow     Balance
                                   Inflow   Inflow   Occurrence      Volume      Volume       Error
  Node                 Type           CMS      CMS  days hr:min    10^6 ltr    10^6 ltr     Percent
  -------------------------------------------------------------------------------------------------
  CSO10                JUNCTION     0.215    0.215     0  05:20        1.36        1.36       0.027
  CSO7                 JUNCTION     0.070    0.070     0  02:15       0.758       0.759       0.018
  CSO8                 JUNCTION     0.517    0.517     0  01:55        3.93        3.94      -0.062
  CSO9                 JUNCTION     0.067    0.067     0  02:00        0.68        0.68      -0.031
  J1                   JUNCTION     0.320    0.320     0  05:20        1.97        1.97      -0.149
  J10                  JUNCTION     0.502    0.926     0  01:57        2.69        6.64      -0.364
  J11                  JUNCTION     0.000    0.486     0  02:10           0        3.92      -0.154
  J12                  JUNCTION     0.000    0.970     0  01:58           0        8.57       8.010
  J13                  JUNCTION     0.416    0.416     0  02:05         3.3        3.31      -0.368
  J14                  JUNCTION     0.000    0.124     0  03:58           0        3.36       0.214
  J15                  JUNCTION     0.000    1.108     0  05:21           0        11.2       0.758
  J16                  JUNCTION     0.702    0.702     0  05:20        3.91        3.92      -0.153
  J17                  JUNCTION     0.000    0.033     0  03:41           0       0.881       0.698
  J18                  JUNCTION     0.000    0.202     0  05:21           0        1.36      -0.108
  J19                  JUNCTION     0.000    0.271     0  02:48           0        7.19       0.166
  J2                   JUNCTION     0.000    0.039     0  05:19           0       0.961       0.551
  J3                   JUNCTION     0.000    0.191     0  05:29           0        5.03       0.741
  J4                   JUNCTION     0.000    0.070     0  02:15           0       0.759      -0.078
  J5                   JUNCTION     0.095    0.165     0  02:15       0.984        1.74      -0.124
  J6                   JUNCTION     0.000    0.028     0  03:41           0       0.727       0.532
  J7                   JUNCTION     0.000    0.067     0  02:00           0        0.68       0.073
  J8                   JUNCTION     0.261    0.315     0  02:25        3.17        3.85      -0.078
  J9                   JUNCTION     0.000    0.075     0  03:31           0        1.93       0.891
  Out_to_WWTP          OUTFALL      0.000    0.271     0  02:49           0        7.18       0.000
  T1                   STORAGE      0.000    1.010     0  05:24           0        11.1       6.918
  T2                   STORAGE      0.000    0.414     0  02:05           0        3.32      34.731
  T3                   STORAGE      0.000    0.922     0  02:02           0        7.94      20.383
  T4                   STORAGE      0.000    0.164     0  02:15           0        1.75      20.148
  T5                   STORAGE      0.000    0.315     0  05:21           0        1.97      28.058
  T6                   STORAGE      0.000    0.314     0  02:05           0        3.85      19.111
  
  
  **********************
  Node Surcharge Summary
  **********************
  
  Surcharging occurs when water rises above the top of the highest conduit.
  ---------------------------------------------------------------------
                                               Max. Height   Min. Depth
                                   Hours       Above Crown    Below Rim
  Node                 Type      Surcharged         Meters       Meters
  ---------------------------------------------------------------------
  CSO10                JUNCTION        0.12          0.560        0.000
  CSO7                 JUNCTION        0.47          0.930        0.015
  CSO8                 JUNCTION        0.98          1.547        0.000
  J4                   JUNCTION        0.41          0.505        1.195
  
  
  *********************
  Node Flooding Summary
  *********************
  
  Flooding refers to all water that overflows a node, whether it ponds or not.
  --------------------------------------------------------------------------
                                                             Total   Maximum
                                 Maximum   Time of Max       Flood    Ponded
                        Hours       Rate    Occurrence      Volume     Depth
  Node                 Flooded       CMS   days hr:min    10^6 ltr    Meters
  --------------------------------------------------------------------------
  CSO10                   0.04     0.013      0  05:20       0.001     0.000
  CSO8                    0.28     0.036      0  01:55       0.018     0.000
  T1                      3.64     0.739      0  05:24       2.561     0.000
  T2                      1.89     0.201      0  03:41       0.687     0.000
  T3                      1.47     0.325      0  04:01       0.723     0.000
  T4                      1.85     0.085      0  04:08       0.328     0.000
  T5                      0.64     0.275      0  05:21       0.218     0.000
  T6                      2.47     0.199      0  04:21       0.871     0.000
  
  
  **********************
  Storage Volume Summary
  **********************
  
  --------------------------------------------------------------------------------------------------
                         Average     Avg  Evap Exfil       Maximum     Max    Time of Max    Maximum
                          Volume    Pcnt  Pcnt  Pcnt        Volume    Pcnt     Occurrence    Outflow
  Storage Unit           1000 m3    Full  Loss  Loss       1000 m3    Full    days hr:min        CMS
  --------------------------------------------------------------------------------------------------
  T1                       0.515      74     0     0         0.700     100       0  02:47      0.271
  T2                       0.712      71     0     0         1.000     100       0  03:40      0.033
  T3                       1.950      75     0     0         2.600     100       0  03:58      0.124
  T4                       0.343      69     0     0         0.500     100       0  03:41      0.028
  T5                       0.303      61     0     0         0.500     100       0  05:18      0.039
  T6                       0.405      68     0     0         0.600     100       0  03:31      0.075
  
  
  ***********************
  Outfall Loading Summary
  ***********************
  
  -----------------------------------------------------------
                         Flow       Avg       Max       Total
                         Freq      Flow      Flow      Volume
  Outfall Node           Pcnt       CMS       CMS    10^6 ltr
  -----------------------------------------------------------
  Out_to_WWTP           99.22     0.217     0.271       7.181
  -----------------------------------------------------------
  System                99.22     0.217     0.271       7.181
  
  
  ********************
  Link Flow Summary
  ********************
  
  -----------------------------------------------------------------------------
                                 Maximum  Time of Max   Maximum    Max/    Max/
                                  |Flow|   Occurrence   |Veloc|    Full    Full
  Link                 Type          CMS  days hr:min     m/sec    Flow   Depth
  -----------------------------------------------------------------------------
  C1                   CONDUIT     0.039     0  05:57      0.90    0.01    0.11
  C10                  CONDUIT     0.314     0  02:05      1.59    0.03    0.56
  C11                  CONDUIT     0.191     0  05:37      1.73    0.01    0.12
  C12                  CONDUIT     0.075     0  05:29      0.59    0.01    0.28
  C13                  CONDUIT     0.922     0  02:02      2.87    0.05    0.75
  C14                  CONDUIT     0.271     0  02:49      2.08    0.02    0.09
  C15                  CONDUIT     0.486     0  02:10      3.50    1.55    0.83
  C16                  CONDUIT     0.485     0  02:11      1.76    0.05    0.15
  C17                  CONDUIT     0.931     0  01:58      3.30    0.05    0.30
  C18                  CONDUIT     0.414     0  02:05      4.72    0.02    0.54
  C19                  CONDUIT     0.033     0  04:50      0.61    0.01    0.21
  C2                   CONDUIT     0.028     0  04:40      0.85    0.03    0.18
  C20                  CONDUIT     0.689     0  05:20      3.71    0.02    0.13
  C21                  CONDUIT     0.202     0  05:21      1.84    1.16    0.68
  C22                  CONDUIT     0.199     0  05:21      1.50    0.09    0.31
  C23                  CONDUIT     1.010     0  05:24      1.52    0.11    0.61
  C3                   CONDUIT     0.124     0  05:20      1.79    0.05    0.14
  C4                   CONDUIT     0.315     0  05:21      4.05    0.08    0.59
  C5                   CONDUIT     0.070     0  02:15      1.36    1.19    1.00
  C6                   CONDUIT     0.070     0  02:15      1.28    1.11    0.73
  C7                   CONDUIT     0.164     0  02:15      1.38    0.04    0.57
  C8                   CONDUIT     0.067     0  02:00      1.33    0.84    0.62
  C9                   CONDUIT     0.064     0  02:04      1.08    0.22    0.34
  V1                   ORIFICE     0.271     0  02:48                      1.00
  V2                   ORIFICE     0.033     0  03:41                      0.24
  V3                   ORIFICE     0.124     0  03:58                      0.65
  V4                   ORIFICE     0.028     0  03:41                      0.35
  V5                   ORIFICE     0.039     0  05:19                      1.00
  V6                   ORIFICE     0.075     0  03:31                      0.43
  
  
  ***************************
  Flow Classification Summary
  ***************************
  
  -------------------------------------------------------------------------------------
                      Adjusted    ---------- Fraction of Time in Flow Class ---------- 
                       /Actual         Up    Down  Sub   Sup   Up    Down  Norm  Inlet 
  Conduit               Length    Dry  Dry   Dry   Crit  Crit  Crit  Crit  Ltd   Ctrl  
  -------------------------------------------------------------------------------------
  C1                      1.00   0.00  0.00  0.00  0.80  0.20  0.00  0.00  0.95  0.00
  C10                     1.00   0.00  0.00  0.00  0.97  0.03  0.00  0.00  0.98  0.00
  C11                     1.00   0.00  0.00  0.00  0.26  0.73  0.00  0.00  1.00  0.00
  C12                     1.00   0.00  0.00  0.00  1.00  0.00  0.00  0.00  1.00  0.00
  C13                     1.00   0.00  0.00  0.00  0.93  0.07  0.00  0.00  0.23  0.00
  C14                     1.00   0.01  0.00  0.00  0.01  0.99  0.00  0.00  0.31  0.00
  C15                     1.00   0.01  0.00  0.00  0.00  0.99  0.00  0.00  0.00  0.00
  C16                     1.00   0.00  0.01  0.00  0.12  0.86  0.00  0.00  0.03  0.00
  C17                     1.00   0.00  0.00  0.00  0.61  0.39  0.00  0.00  0.93  0.00
  C18                     1.00   0.00  0.00  0.00  0.92  0.08  0.00  0.00  0.97  0.00
  C19                     1.00   0.00  0.00  0.00  1.00  0.00  0.00  0.00  1.00  0.00
  C2                      1.00   0.00  0.00  0.00  0.78  0.22  0.00  0.00  0.98  0.00
  C20                     1.00   0.00  0.00  0.00  0.31  0.69  0.00  0.00  0.98  0.00
  C21                     1.00   0.00  0.00  0.00  0.01  0.99  0.00  0.00  0.00  0.00
  C22                     1.00   0.00  0.00  0.00  0.84  0.16  0.00  0.00  1.00  0.00
  C23                     1.00   0.00  0.00  0.00  0.89  0.11  0.00  0.00  0.95  0.00
  C3                      1.00   0.00  0.00  0.00  0.03  0.96  0.00  0.00  0.04  0.00
  C4                      1.00   0.00  0.00  0.00  0.97  0.03  0.00  0.00  0.98  0.00
  C5                      1.00   0.00  0.00  0.00  0.86  0.14  0.00  0.00  0.90  0.00
  C6                      1.00   0.00  0.00  0.00  0.11  0.89  0.00  0.00  0.00  0.00
  C7                      1.00   0.00  0.00  0.00  0.92  0.08  0.00  0.00  0.97  0.00
  C8                      1.00   0.00  0.00  0.00  0.10  0.90  0.00  0.00  0.00  0.00
  C9                      1.00   0.00  0.00  0.00  1.00  0.00  0.00  0.00  1.00  0.00
  
  
  *************************
  Conduit Surcharge Summary
  *************************
  
  ----------------------------------------------------------------------------
                                                           Hours        Hours 
                         --------- Hours Full --------   Above Full   Capacity
  Conduit                Both Ends  Upstream  Dnstream   Normal Flow   Limited
  ----------------------------------------------------------------------------
  C10                         0.01      0.01      6.95      0.01         0.01
  C13                         0.01      0.01      7.24      0.01         0.01
  C15                         0.01      0.97      0.01      1.03         0.01
  C18                         0.01      0.01      6.89      0.01         0.01
  C21                         0.01      0.11      0.01      0.10         0.01
  C23                         0.01      0.01      7.59      0.01         0.01
  C4                          0.01      0.01      7.49      0.01         0.01
  C5                          0.44      0.47      0.56      0.50         0.40
  C6                          0.01      0.41      0.01      0.23         0.01
  C7                          0.01      0.01      7.81      0.01         0.01
  

  Analysis begun on:  Sun Jul 17 20:50:56 2022
  Analysis ended on:  Sun Jul 17 20:50:56 2022
  Total elapsed time: < 1 sec