
  EPA STORM WATER MANAGEMENT MODEL - VERSION 5.1 (Build 5.3.0.dev0)
  --------------------------------------------------------------

  
  *********************************************************
  NOTE: The summary statistics displayed in this report are
  based on results found at every computational time step,  
  not just on results from each reporting time step.
  *********************************************************
  
  ****************
  Analysis Options
  ****************
  Flow Units ............... CMS
  Process Models:
    Rainfall/Runoff ........ YES
    RDII ................... NO
    Snowmelt ............... NO
    Groundwater ............ NO
    Flow Routing ........... YES
    Ponding Allowed ........ NO
    Water Quality .......... NO
  Infiltration Method ...... HORTON
  Flow Routing Method ...... DYNWAVE
  Surcharge Method ......... EXTRAN
  Starting Date ............ 07/01/2008 00:00:00
  Ending Date .............. 07/01/2008 18:55:00
  Antecedent Dry Days ...... 0.0
  Report Time Step ......... 00:05:00
  Wet Time Step ............ 00:05:00
  Dry Time Step ............ 01:00:00
  Routing Time Step ........ 30.00 sec
  Variable Time Step ....... YES
  Maximum Trials ........... 8
  Number of Threads ........ 1
  Head Tolerance ........... 0.001500 m
  
  
  **************************        Volume         Depth
  Runoff Quantity Continuity     hectare-m            mm
  **************************     ---------       -------
  Total Precipitation ......         1.093         6.065
  Evaporation Loss .........         0.000         0.000
  Infiltration Loss ........         0.000         0.000
  Surface Runoff ...........         1.073         5.957
  Final Storage ............         0.022         0.124
  Continuity Error (%) .....        -0.270
  
  
  **************************        Volume        Volume
  Flow Routing Continuity        hectare-m      10^6 ltr
  **************************     ---------     ---------
  Dry Weather Inflow .......         0.655         6.555
  Wet Weather Inflow .......         1.073        10.735
  Groundwater Inflow .......         0.000         0.000
  RDII Inflow ..............         0.000         0.000
  External Inflow ..........         0.000         0.000
  External Outflow .........         1.020        10.199
  Flooding Loss ............         0.057         0.573
  Evaporation Loss .........         0.000         0.000
  Exfiltration Loss ........         0.000         0.000
  Initial Stored Volume ....         0.000         0.000
  Final Stored Volume ......         0.544         5.436
  Continuity Error (%) .....         6.255
  
  
  *************************
  Highest Continuity Errors
  *************************
  Node T2 (19.24%)
  Node T3 (13.30%)
  Node T6 (13.15%)
  Node T5 (10.78%)
  Node T4 (10.17%)
  
  
  ***************************
  Time-Step Critical Elements
  ***************************
  Link C15 (22.09%)
  
  
  ********************************
  Highest Flow Instability Indexes
  ********************************
  Link C15 (2)
  Link C20 (1)
  
  
  *************************
  Routing Time Step Summary
  *************************
  Minimum Time Step           :     0.22 sec
  Average Time Step           :    27.78 sec
  Maximum Time Step           :    30.00 sec
  Percent in Steady State     :     8.28
  Average Iterations per Step :     2.11
  Percent Not Converging      :     0.09
  
  
  ***************************
  Subcatchment Runoff Summary
  ***************************
  
  ------------------------------------------------------------------------------------------------------------------------------
                            Total      Total      Total      Total     Imperv       Perv      Total       Total     Peak  Runoff
                           Precip      Runon       Evap      Infil     Runoff     Runoff     Runoff      Runoff   Runoff   Coeff
  Subcatchment                 mm         mm         mm         mm         mm         mm         mm    10^6 ltr      CMS
  ------------------------------------------------------------------------------------------------------------------------------
  SC01                       3.62       0.00       0.00       0.00       3.52       0.00       3.52        1.16     0.16   0.974
  SC010                      3.62       0.00       0.00       0.00       3.49       0.00       3.49        0.41     0.04   0.965
  SC02                       5.73       0.00       0.00       0.00       5.65       0.00       5.65        1.29     0.17   0.986
  SC03                       8.48       0.00       0.00       0.00       8.45       0.00       8.45        1.52     0.39   0.997
  SC04                       5.73       0.00       0.00       0.00       5.56       0.00       5.56        0.38     0.04   0.970
  SC05                       3.62       0.00       0.00       0.00       3.52       0.00       3.52        0.55     0.07   0.972
  SC06                       7.28       0.00       0.00       0.00       7.09       0.00       7.09        2.31     0.27   0.975
  SC07                       5.73       0.00       0.00       0.00       5.56       0.00       5.56        0.26     0.03   0.970
  SC08                       8.48       0.00       0.00       0.00       8.40       0.00       8.40        2.35     0.42   0.991
  SC09                       7.28       0.00       0.00       0.00       7.17       0.00       7.17        0.49     0.07   0.985
  
  
  ******************
  Node Depth Summary
  ******************
  
  ---------------------------------------------------------------------------------
                                 Average  Maximum  Maximum  Time of Max    Reported
                                   Depth    Depth      HGL   Occurrence   Max Depth
  Node                 Type       Meters   Meters   Meters  days hr:min      Meters
  ---------------------------------------------------------------------------------
  CSO10                JUNCTION     0.07     0.16    30.16     0  00:37        0.16
  CSO7                 JUNCTION     0.07     0.12    34.12     0  00:51        0.12
  CSO8                 JUNCTION     0.13     1.68    33.68     0  12:10        1.68
  CSO9                 JUNCTION     0.08     0.28    40.28     0  12:31        0.28
  J1                   JUNCTION     0.05     0.10    34.10     0  12:15        0.10
  J10                  JUNCTION     0.08     0.27    29.27     0  12:03        0.27
  J11                  JUNCTION     0.08     0.28    31.28     0  12:10        0.28
  J12                  JUNCTION     0.12     0.30    26.30     0  12:08        0.30
  J13                  JUNCTION     0.05     0.11    29.11     0  00:41        0.11
  J14                  JUNCTION     0.11     0.14    20.14     0  14:36        0.14
  J15                  JUNCTION     0.14     0.19    15.19     0  12:20        0.19
  J16                  JUNCTION     0.04     0.10    30.10     0  00:36        0.10
  J17                  JUNCTION     0.06     0.06    20.06     0  16:09        0.06
  J18                  JUNCTION     0.04     0.08    29.08     0  00:41        0.08
  J19                  JUNCTION     0.13     0.15     8.15     0  14:32        0.15
  J2                   JUNCTION     0.05     0.06    25.06     0  14:18        0.06
  J3                   JUNCTION     0.10     0.12    18.12     0  14:29        0.12
  J4                   JUNCTION     0.09     0.14    33.14     0  00:53        0.14
  J5                   JUNCTION     0.05     0.09    32.09     0  00:52        0.09
  J6                   JUNCTION     0.05     0.06    25.06     0  14:33        0.06
  J7                   JUNCTION     0.06     0.18    39.18     0  12:35        0.18
  J8                   JUNCTION     0.08     0.20    36.20     0  12:35        0.20
  J9                   JUNCTION     0.08     0.11    29.11     0  14:00        0.11
  Out_to_WWTP          OUTFALL      0.13     0.15     6.15     0  14:32        0.15
  T1                   STORAGE      1.71     3.02    13.02     0  14:31        3.02
  T2                   STORAGE      1.64     2.20    23.20     0  16:06        2.20
  T3                   STORAGE      2.13     4.12    26.12     0  14:35        4.12
  T4                   STORAGE      1.50     2.16    29.16     0  14:30        2.16
  T5                   STORAGE      1.07     1.91    28.91     0  14:11        1.91
  T6                   STORAGE      2.34     5.00    36.00     0  12:50        5.00
  
  
  *******************
  Node Inflow Summary
  *******************
  
  -------------------------------------------------------------------------------------------------
                                  Maximum  Maximum                  Lateral       Total        Flow
                                  Lateral    Total  Time of Max      Inflow      Inflow     Balance
                                   Inflow   Inflow   Occurrence      Volume      Volume       Error
  Node                 Type           CMS      CMS  days hr:min    10^6 ltr    10^6 ltr     Percent
  -------------------------------------------------------------------------------------------------
  CSO10                JUNCTION     0.043    0.043     0  12:15       0.642       0.642      -0.025
  CSO7                 JUNCTION     0.027    0.027     0  00:50       0.748       0.749      -0.082
  CSO8                 JUNCTION     0.430    0.430     0  12:10         2.8        2.81      -0.029
  CSO9                 JUNCTION     0.078    0.078     0  12:30       0.823       0.825      -0.048
  J1                   JUNCTION     0.082    0.082     0  12:15        1.49        1.48      -0.185
  J10                  JUNCTION     0.411    0.785     0  12:02        2.16        4.97       0.090
  J11                  JUNCTION     0.000    0.430     0  12:10           0        2.81       0.310
  J12                  JUNCTION     0.000    0.830     0  12:03           0        8.07       0.266
  J13                  JUNCTION     0.173    0.173     0  00:40        2.06        2.07      -0.402
  J14                  JUNCTION     0.000    0.112     0  14:36           0        5.01       0.138
  J15                  JUNCTION     0.000    0.335     0  12:16           0        11.2       0.652
  J16                  JUNCTION     0.161    0.161     0  00:35        2.09        2.09      -0.125
  J17                  JUNCTION     0.000    0.022     0  16:07           0        1.27       0.335
  J18                  JUNCTION     0.000    0.043     0  00:38           0       0.642       0.109
  J19                  JUNCTION     0.000    0.210     0  14:31           0        10.2       0.099
  J2                   JUNCTION     0.000    0.024     0  14:13           0        1.18       0.296
  J3                   JUNCTION     0.000    0.155     0  14:27           0         7.2       0.447
  J4                   JUNCTION     0.000    0.026     0  00:51           0       0.749       0.478
  J5                   JUNCTION     0.037    0.062     0  00:50       0.596        1.34       0.030
  J6                   JUNCTION     0.000    0.018     0  14:31           0        1.02       0.264
  J7                   JUNCTION     0.000    0.078     0  12:31           0       0.825       0.084
  J8                   JUNCTION     0.311    0.389     0  12:35        3.88        4.72      -0.126
  J9                   JUNCTION     0.000    0.075     0  12:50           0        3.12       0.530
  Out_to_WWTP          OUTFALL      0.000    0.210     0  14:32           0        10.2       0.000
  T1                   STORAGE      0.000    0.322     0  12:20           0        11.1       4.738
  T2                   STORAGE      0.000    0.171     0  00:41           0        2.07      23.819
  T3                   STORAGE      0.000    0.806     0  12:08           0        8.05      15.338
  T4                   STORAGE      0.000    0.062     0  00:52           0        1.34      11.322
  T5                   STORAGE      0.000    0.081     0  12:16           0        1.49      12.080
  T6                   STORAGE      0.000    0.387     0  12:36           0        4.72      15.136
  
  
  **********************
  Node Surcharge Summary
  **********************
  
  Surcharging occurs when water rises above the top of the highest conduit.
  ---------------------------------------------------------------------
                                               Max. Height   Min. Depth
                                   Hours       Above Crown    Below Rim
  Node                 Type      Surcharged         Meters       Meters
  ---------------------------------------------------------------------
  CSO8                 JUNCTION        0.31          1.232        0.315
  
  
  *********************
  Node Flooding Summary
  *********************
  
  Flooding refers to all water that overflows a node, whether it ponds or not.
  --------------------------------------------------------------------------
                                                             Total   Maximum
                                 Maximum   Time of Max       Flood    Ponded
                        Hours       Rate    Occurrence      Volume     Depth
  Node                 Flooded       CMS   days hr:min    10^6 ltr    Meters
  --------------------------------------------------------------------------
  T6                      1.65     0.269      0  12:50       0.573     0.000
  
  
  **********************
  Storage Volume Summary
  **********************
  
  --------------------------------------------------------------------------------------------------
                         Average     Avg  Evap Exfil       Maximum     Max    Time of Max    Maximum
                          Volume    Pcnt  Pcnt  Pcnt        Volume    Pcnt     Occurrence    Outflow
  Storage Unit           1000 m3    Full  Loss  Loss       1000 m3    Full    days hr:min        CMS
  --------------------------------------------------------------------------------------------------
  T1                       0.239      34     0     0         0.423      60       0  14:31      0.210
  T2                       0.329      33     0     0         0.439      44       0  16:06      0.022
  T3                       1.110      43     0     0         2.144      82       0  14:35      0.112
  T4                       0.150      30     0     0         0.216      43       0  14:30      0.018
  T5                       0.107      21     0     0         0.191      38       0  14:11      0.024
  T6                       0.281      47     0     0         0.600     100       0  12:50      0.075
  
  
  ***********************
  Outfall Loading Summary
  ***********************
  
  -----------------------------------------------------------
                         Flow       Avg       Max       Total
                         Freq      Flow      Flow      Volume
  Outfall Node           Pcnt       CMS       CMS    10^6 ltr
  -----------------------------------------------------------
  Out_to_WWTP           99.18     0.151     0.210      10.199
  -----------------------------------------------------------
  System                99.18     0.151     0.210      10.199
  
  
  ********************
  Link Flow Summary
  ********************
  
  -----------------------------------------------------------------------------
                                 Maximum  Time of Max   Maximum    Max/    Max/
                                  |Flow|   Occurrence   |Veloc|    Full    Full
  Link                 Type          CMS  days hr:min     m/sec    Flow   Depth
  -----------------------------------------------------------------------------
  C1                   CONDUIT     0.024     0  14:19      0.91    0.01    0.09
  C10                  CONDUIT     0.387     0  12:36      2.35    0.04    0.57
  C11                  CONDUIT     0.155     0  14:29      1.61    0.01    0.08
  C12                  CONDUIT     0.075     0  13:58      1.09    0.01    0.10
  C13                  CONDUIT     0.806     0  12:08      1.54    0.05    0.57
  C14                  CONDUIT     0.210     0  14:32      1.92    0.01    0.08
  C15                  CONDUIT     0.430     0  12:10      3.16    1.37    0.81
  C16                  CONDUIT     0.425     0  12:10      1.68    0.04    0.14
  C17                  CONDUIT     0.776     0  12:03      3.00    0.04    0.14
  C18                  CONDUIT     0.171     0  00:41      2.43    0.01    0.52
  C19                  CONDUIT     0.022     0  16:09      0.61    0.01    0.13
  C2                   CONDUIT     0.018     0  14:33      0.96    0.02    0.15
  C20                  CONDUIT     0.159     0  00:37      2.70    0.00    0.07
  C21                  CONDUIT     0.043     0  00:38      1.30    0.25    0.27
  C22                  CONDUIT     0.043     0  00:41      1.03    0.02    0.17
  C23                  CONDUIT     0.322     0  12:20      1.99    0.04    0.56
  C3                   CONDUIT     0.112     0  14:37      1.77    0.04    0.13
  C4                   CONDUIT     0.081     0  12:16      2.03    0.02    0.55
  C5                   CONDUIT     0.026     0  00:51      1.24    0.45    0.51
  C6                   CONDUIT     0.026     0  00:53      1.04    0.41    0.38
  C7                   CONDUIT     0.062     0  00:52      1.78    0.02    0.53
  C8                   CONDUIT     0.078     0  12:31      1.74    0.98    0.72
  C9                   CONDUIT     0.077     0  12:35      1.13    0.26    0.38
  V1                   ORIFICE     0.210     0  14:31                      1.00
  V2                   ORIFICE     0.022     0  16:07                      0.24
  V3                   ORIFICE     0.112     0  14:36                      0.65
  V4                   ORIFICE     0.018     0  14:31                      0.35
  V5                   ORIFICE     0.024     0  14:13                      1.00
  V6                   ORIFICE     0.075     0  12:50                      0.43
  
  
  ***************************
  Flow Classification Summary
  ***************************
  
  -------------------------------------------------------------------------------------
                      Adjusted    ---------- Fraction of Time in Flow Class ---------- 
                       /Actual         Up    Down  Sub   Sup   Up    Down  Norm  Inlet 
  Conduit               Length    Dry  Dry   Dry   Crit  Crit  Crit  Crit  Ltd   Ctrl  
  -------------------------------------------------------------------------------------
  C1                      1.00   0.00  0.00  0.00  0.84  0.16  0.00  0.00  0.96  0.00
  C10                     1.00   0.00  0.00  0.00  0.81  0.19  0.00  0.00  0.97  0.00
  C11                     1.00   0.00  0.00  0.00  0.11  0.89  0.00  0.00  1.00  0.00
  C12                     1.00   0.00  0.00  0.00  0.42  0.58  0.00  0.00  0.86  0.00
  C13                     1.00   0.00  0.00  0.00  0.91  0.09  0.00  0.00  0.87  0.00
  C14                     1.00   0.01  0.00  0.00  0.01  0.99  0.00  0.00  0.65  0.00
  C15                     1.00   0.06  0.00  0.00  0.01  0.93  0.00  0.00  0.02  0.00
  C16                     1.00   0.00  0.06  0.00  0.49  0.46  0.00  0.00  0.25  0.00
  C17                     1.00   0.00  0.00  0.00  0.36  0.64  0.00  0.00  0.96  0.00
  C18                     1.00   0.00  0.00  0.00  0.97  0.03  0.00  0.00  0.98  0.00
  C19                     1.00   0.00  0.00  0.00  0.99  0.01  0.00  0.00  1.00  0.00
  C2                      1.00   0.00  0.00  0.00  0.77  0.22  0.00  0.00  0.98  0.00
  C20                     1.00   0.00  0.00  0.00  0.83  0.17  0.00  0.00  0.99  0.00
  C21                     1.00   0.00  0.00  0.00  0.00  1.00  0.00  0.00  0.00  0.00
  C22                     1.00   0.00  0.00  0.00  0.98  0.02  0.00  0.00  1.00  0.00
  C23                     1.00   0.00  0.00  0.00  0.96  0.04  0.00  0.00  0.97  0.00
  C3                      1.00   0.00  0.00  0.00  0.07  0.93  0.00  0.00  0.15  0.00
  C4                      1.00   0.00  0.00  0.00  0.97  0.03  0.00  0.00  0.98  0.00
  C5                      1.00   0.00  0.00  0.00  0.92  0.08  0.00  0.00  0.98  0.00
  C6                      1.00   0.00  0.00  0.00  0.02  0.98  0.00  0.00  0.00  0.00
  C7                      1.00   0.00  0.00  0.00  0.97  0.03  0.00  0.00  0.98  0.00
  C8                      1.00   0.00  0.00  0.00  0.17  0.83  0.00  0.00  0.00  0.00
  C9                      1.00   0.00  0.00  0.00  1.00  0.00  0.00  0.00  1.00  0.00
  
  
  *************************
  Conduit Surcharge Summary
  *************************
  
  ----------------------------------------------------------------------------
                                                           Hours        Hours 
                         --------- Hours Full --------   Above Full   Capacity
  Conduit                Both Ends  Upstream  Dnstream   Normal Flow   Limited
  ----------------------------------------------------------------------------
  C10                         0.01      0.01     10.91      0.01         0.01
  C13                         0.01      0.01      6.93      0.01         0.01
  C15                         0.01      0.31      0.01      0.34         0.01
  C18                         0.01      0.01      5.91      0.01         0.01
  C23                         0.01      0.01      8.37      0.01         0.01
  C4                          0.01      0.01      7.69      0.01         0.01
  C7                          0.01      0.01     17.30      0.01         0.01
  

  Analysis begun on:  Sun Jul 17 20:48:14 2022
  Analysis ended on:  Sun Jul 17 20:48:14 2022
  Total elapsed time: < 1 sec