
  EPA STORM WATER MANAGEMENT MODEL - VERSION 5.1 (Build 5.3.0.dev0)
  --------------------------------------------------------------

  
  *********************************************************
  NOTE: The summary statistics displayed in this report are
  based on results found at every computational time step,  
  not just on results from each reporting time step.
  *********************************************************
  
  ****************
  Analysis Options
  ****************
  Flow Units ............... CMS
  Process Models:
    Rainfall/Runoff ........ YES
    RDII ................... NO
    Snowmelt ............... NO
    Groundwater ............ NO
    Flow Routing ........... YES
    Ponding Allowed ........ NO
    Water Quality .......... NO
  Infiltration Method ...... HORTON
  Flow Routing Method ...... DYNWAVE
  Surcharge Method ......... EXTRAN
  Starting Date ............ 08/11/2008 19:35:00
  Ending Date .............. 08/11/2008 22:50:00
  Antecedent Dry Days ...... 0.0
  Report Time Step ......... 00:05:00
  Wet Time Step ............ 00:05:00
  Dry Time Step ............ 01:00:00
  Routing Time Step ........ 30.00 sec
  Variable Time Step ....... YES
  Maximum Trials ........... 8
  Number of Threads ........ 1
  Head Tolerance ........... 0.001500 m
  
  
  **************************        Volume         Depth
  Runoff Quantity Continuity     hectare-m            mm
  **************************     ---------       -------
  Total Precipitation ......         2.423        13.446
  Evaporation Loss .........         0.000         0.000
  Infiltration Loss ........         0.000         0.000
  Surface Runoff ...........         2.435        13.511
  Final Storage ............         0.043         0.239
  Continuity Error (%) .....        -2.255
  
  
  **************************        Volume        Volume
  Flow Routing Continuity        hectare-m      10^6 ltr
  **************************     ---------     ---------
  Dry Weather Inflow .......         0.073         0.730
  Wet Weather Inflow .......         2.436        24.357
  Groundwater Inflow .......         0.000         0.000
  RDII Inflow ..............         0.000         0.000
  External Inflow ..........         0.000         0.000
  External Outflow .........         0.279         2.795
  Flooding Loss ............         1.364        13.645
  Evaporation Loss .........         0.000         0.000
  Exfiltration Loss ........         0.000         0.000
  Initial Stored Volume ....         0.000         0.000
  Final Stored Volume ......         0.670         6.699
  Continuity Error (%) .....         7.766
  
  
  *************************
  Highest Continuity Errors
  *************************
  Node T2 (45.35%)
  Node T4 (40.23%)
  Node T3 (33.96%)
  Node T5 (14.05%)
  Node T6 (13.16%)
  
  
  ***************************
  Time-Step Critical Elements
  ***************************
  Link C15 (51.46%)
  
  
  ********************************
  Highest Flow Instability Indexes
  ********************************
  Link C13 (6)
  Link C5 (2)
  Link C4 (2)
  Link C21 (1)
  Link C23 (1)
  
  
  *************************
  Routing Time Step Summary
  *************************
  Minimum Time Step           :     0.17 sec
  Average Time Step           :    23.02 sec
  Maximum Time Step           :    30.00 sec
  Percent in Steady State     :    12.44
  Average Iterations per Step :     2.81
  Percent Not Converging      :     6.07
  
  
  ***************************
  Subcatchment Runoff Summary
  ***************************
  
  ------------------------------------------------------------------------------------------------------------------------------
                            Total      Total      Total      Total     Imperv       Perv      Total       Total     Peak  Runoff
                           Precip      Runon       Evap      Infil     Runoff     Runoff     Runoff      Runoff   Runoff   Coeff
  Subcatchment                 mm         mm         mm         mm         mm         mm         mm    10^6 ltr      CMS
  ------------------------------------------------------------------------------------------------------------------------------
  SC01                      15.62       0.00       0.00       0.00      15.84       0.00      15.84        5.23     4.88   1.014
  SC010                     15.62       0.00       0.00       0.00      15.72       0.00      15.72        1.85     1.54   1.006
  SC02                       7.77       0.00       0.00       0.00       7.84       0.00       7.84        1.78     1.91   1.009
  SC03                      13.07       0.00       0.00       0.00      13.58       0.00      13.58        2.44     2.82   1.039
  SC04                       7.77       0.00       0.00       0.00       7.53       0.00       7.53        0.52     0.31   0.969
  SC05                      15.62       0.00       0.00       0.00      15.81       0.00      15.81        2.47     2.20   1.012
  SC06                      15.51       0.00       0.00       0.00      15.14       0.00      15.14        4.93     3.11   0.976
  SC07                       7.77       0.00       0.00       0.00       7.53       0.00       7.53        0.36     0.21   0.969
  SC08                      13.07       0.00       0.00       0.00      13.24       0.00      13.24        3.71     3.46   1.013
  SC09                      15.51       0.00       0.00       0.00      15.46       0.00      15.46        1.07     0.85   0.996
  
  
  ******************
  Node Depth Summary
  ******************
  
  ---------------------------------------------------------------------------------
                                 Average  Maximum  Maximum  Time of Max    Reported
                                   Depth    Depth      HGL   Occurrence   Max Depth
  Node                 Type       Meters   Meters   Meters  days hr:min      Meters
  ---------------------------------------------------------------------------------
  CSO10                JUNCTION     0.38     1.00    31.00     0  00:13        1.00
  CSO7                 JUNCTION     0.40     1.20    35.20     0  00:11        1.20
  CSO8                 JUNCTION     0.68     2.00    34.00     0  00:06        2.00
  CSO9                 JUNCTION     0.71     2.00    42.00     0  00:13        2.00
  J1                   JUNCTION     0.15     0.65    34.65     0  00:25        0.65
  J10                  JUNCTION     0.17     0.54    29.54     0  00:15        0.54
  J11                  JUNCTION     0.16     0.30    31.30     0  00:36        0.30
  J12                  JUNCTION     0.22     0.59    26.59     0  00:14        0.59
  J13                  JUNCTION     0.10     0.36    29.36     0  00:15        0.35
  J14                  JUNCTION     0.13     0.14    20.14     0  01:59        0.14
  J15                  JUNCTION     0.31     1.00    16.00     0  00:27        0.97
  J16                  JUNCTION     0.15     0.53    30.53     0  00:20        0.52
  J17                  JUNCTION     0.06     0.07    20.07     0  01:37        0.07
  J18                  JUNCTION     0.09     0.16    29.16     0  00:46        0.16
  J19                  JUNCTION     0.15     0.17     8.17     0  00:25        0.17
  J2                   JUNCTION     0.07     0.08    25.08     0  01:25        0.08
  J3                   JUNCTION     0.11     0.13    18.13     0  01:43        0.13
  J4                   JUNCTION     0.25     0.78    33.78     0  00:17        0.74
  J5                   JUNCTION     0.09     0.21    32.21     0  00:18        0.20
  J6                   JUNCTION     0.06     0.07    25.07     0  02:03        0.07
  J7                   JUNCTION     0.13     0.23    39.23     0  00:48        0.23
  J8                   JUNCTION     0.22     0.62    36.62     0  00:28        0.60
  J9                   JUNCTION     0.09     0.11    29.11     0  02:58        0.11
  Out_to_WWTP          OUTFALL      0.15     0.17     6.17     0  00:25        0.17
  T1                   STORAGE      4.09     5.00    15.00     0  00:24        5.00
  T2                   STORAGE      3.20     3.93    24.93     0  01:35        3.93
  T3                   STORAGE      3.28     4.14    26.14     0  01:58        4.14
  T4                   STORAGE      2.30     3.11    30.11     0  02:01        3.11
  T5                   STORAGE      4.10     5.00    32.00     0  00:24        5.00
  T6                   STORAGE      4.12     5.00    36.00     0  00:26        5.00
  
  
  *******************
  Node Inflow Summary
  *******************
  
  -------------------------------------------------------------------------------------------------
                                  Maximum  Maximum                  Lateral       Total        Flow
                                  Lateral    Total  Time of Max      Inflow      Inflow     Balance
                                   Inflow   Inflow   Occurrence      Volume      Volume       Error
  Node                 Type           CMS      CMS  days hr:min    10^6 ltr    10^6 ltr     Percent
  -------------------------------------------------------------------------------------------------
  CSO10                JUNCTION     1.539    1.539     0  00:25        1.88        1.88      -0.440
  CSO7                 JUNCTION     0.222    0.222     0  00:15       0.416       0.417      -0.278
  CSO8                 JUNCTION     3.461    3.461     0  00:15         3.7        3.71      -0.297
  CSO9                 JUNCTION     0.851    0.851     0  00:25        1.11        1.11      -0.346
  J1                   JUNCTION     2.212    2.212     0  00:20        2.58        2.59      -1.322
  J10                  JUNCTION     2.830    3.304     0  00:15        2.51        4.03      -1.603
  J11                  JUNCTION     0.000    0.487     0  00:36           0        1.47      -2.644
  J12                  JUNCTION     0.000    3.245     0  00:15           0        4.86      -2.225
  J13                  JUNCTION     1.918    1.918     0  00:15        1.88        1.88      -1.821
  J14                  JUNCTION     0.000    0.112     0  01:58           0        1.17       0.584
  J15                  JUNCTION     0.000    5.161     0  00:20           0        8.18      -3.284
  J16                  JUNCTION     4.899    4.899     0  00:20        5.34        5.37      -1.265
  J17                  JUNCTION     0.000    0.029     0  01:35           0        0.31       2.345
  J18                  JUNCTION     0.000    0.202     0  00:46           0       0.681      -2.034
  J19                  JUNCTION     0.000    0.271     0  00:24           0        2.81       0.430
  J2                   JUNCTION     0.000    0.039     0  00:24           0       0.409       1.299
  J3                   JUNCTION     0.000    0.173     0  01:41           0        1.79       2.391
  J4                   JUNCTION     0.000    0.085     0  00:14           0       0.294      -2.494
  J5                   JUNCTION     0.313    0.380     0  00:17       0.545       0.848      -1.303
  J6                   JUNCTION     0.000    0.022     0  02:01           0       0.225       1.732
  J7                   JUNCTION     0.000    0.127     0  00:48           0       0.474      -2.200
  J8                   JUNCTION     3.136    3.262     0  00:25        5.12        5.63      -1.593
  J9                   JUNCTION     0.000    0.075     0  00:26           0       0.792       3.361
  Out_to_WWTP          OUTFALL      0.000    0.271     0  00:25           0        2.79       0.000
  T1                   STORAGE      0.000    4.475     0  00:22           0        8.46       8.525
  T2                   STORAGE      0.000    1.890     0  00:15           0        1.92      82.983
  T3                   STORAGE      0.000    3.241     0  00:14           0        4.97      51.419
  T4                   STORAGE      0.000    0.378     0  00:18           0       0.859      67.299
  T5                   STORAGE      0.000    2.210     0  00:20           0        2.63      16.351
  T6                   STORAGE      0.000    3.217     0  00:25           0        5.72      15.150
  
  
  **********************
  Node Surcharge Summary
  **********************
  
  Surcharging occurs when water rises above the top of the highest conduit.
  ---------------------------------------------------------------------
                                               Max. Height   Min. Depth
                                   Hours       Above Crown    Below Rim
  Node                 Type      Surcharged         Meters       Meters
  ---------------------------------------------------------------------
  CSO10                JUNCTION        0.61          0.560        0.000
  CSO7                 JUNCTION        0.58          0.945        0.000
  CSO8                 JUNCTION        0.61          1.547        0.000
  CSO9                 JUNCTION        0.74          1.682        0.000
  J4                   JUNCTION        0.54          0.475        1.225
  
  
  *********************
  Node Flooding Summary
  *********************
  
  Flooding refers to all water that overflows a node, whether it ponds or not.
  --------------------------------------------------------------------------
                                                             Total   Maximum
                                 Maximum   Time of Max       Flood    Ponded
                        Hours       Rate    Occurrence      Volume     Depth
  Node                 Flooded       CMS   days hr:min    10^6 ltr    Meters
  --------------------------------------------------------------------------
  CSO10                   0.56     1.336      0  00:25       1.212     0.000
  CSO7                    0.48     0.145      0  00:17       0.124     0.000
  CSO8                    0.50     2.954      0  00:15       2.254     0.000
  CSO9                    0.59     0.722      0  00:25       0.641     0.000
  T1                      1.26     3.871      0  00:28       4.372     0.000
  T5                      1.02     2.124      0  00:25       1.423     0.000
  T6                      1.89     2.921      0  00:26       3.605     0.000
  
  
  **********************
  Storage Volume Summary
  **********************
  
  --------------------------------------------------------------------------------------------------
                         Average     Avg  Evap Exfil       Maximum     Max    Time of Max    Maximum
                          Volume    Pcnt  Pcnt  Pcnt        Volume    Pcnt     Occurrence    Outflow
  Storage Unit           1000 m3    Full  Loss  Loss       1000 m3    Full    days hr:min        CMS
  --------------------------------------------------------------------------------------------------
  T1                       0.573      82     0     0         0.700     100       0  00:24      0.271
  T2                       0.640      64     0     0         0.785      79       0  01:35      0.029
  T3                       1.708      66     0     0         2.152      83       0  01:58      0.112
  T4                       0.230      46     0     0         0.311      62       0  02:01      0.022
  T5                       0.410      82     0     0         0.500     100       0  00:24      0.039
  T6                       0.494      82     0     0         0.600     100       0  00:26      0.075
  
  
  ***********************
  Outfall Loading Summary
  ***********************
  
  -----------------------------------------------------------
                         Flow       Avg       Max       Total
                         Freq      Flow      Flow      Volume
  Outfall Node           Pcnt       CMS       CMS    10^6 ltr
  -----------------------------------------------------------
  Out_to_WWTP           97.86     0.231     0.271       2.795
  -----------------------------------------------------------
  System                97.86     0.231     0.271       2.795
  
  
  ********************
  Link Flow Summary
  ********************
  
  -----------------------------------------------------------------------------
                                 Maximum  Time of Max   Maximum    Max/    Max/
                                  |Flow|   Occurrence   |Veloc|    Full    Full
  Link                 Type          CMS  days hr:min     m/sec    Flow   Depth
  -----------------------------------------------------------------------------
  C1                   CONDUIT     0.039     0  01:26      1.01    0.01    0.10
  C10                  CONDUIT     3.217     0  00:25      2.66    0.33    0.71
  C11                  CONDUIT     0.173     0  01:44      1.68    0.01    0.28
  C12                  CONDUIT     0.075     0  02:10      1.14    0.01    0.15
  C13                  CONDUIT     3.241     0  00:14      4.63    0.19    0.62
  C14                  CONDUIT     0.271     0  00:25      2.08    0.02    0.09
  C15                  CONDUIT     0.487     0  00:36      4.10    1.55    0.83
  C16                  CONDUIT     0.486     0  00:29      1.86    0.05    0.21
  C17                  CONDUIT     3.241     0  00:15      4.70    0.16    0.28
  C18                  CONDUIT     1.890     0  00:15      3.92    0.07    0.58
  C19                  CONDUIT     0.029     0  01:37      0.58    0.01    0.53
  C2                   CONDUIT     0.022     0  02:03      0.73    0.03    0.16
  C20                  CONDUIT     4.877     0  00:20      6.13    0.15    0.37
  C21                  CONDUIT     0.202     0  00:46      1.92    1.16    0.69
  C22                  CONDUIT     0.202     0  00:47      1.84    0.09    0.60
  C23                  CONDUIT     4.475     0  00:22      3.40    0.49    0.83
  C3                   CONDUIT     0.112     0  01:59      1.78    0.04    0.14
  C4                   CONDUIT     2.210     0  00:20      3.48    0.54    0.83
  C5                   CONDUIT     0.085     0  00:14      1.76    1.45    1.00
  C6                   CONDUIT     0.074     0  00:18      1.30    1.17    0.84
  C7                   CONDUIT     0.378     0  00:18      2.74    0.09    0.60
  C8                   CONDUIT     0.127     0  00:48      2.03    1.60    0.86
  C9                   CONDUIT     0.127     0  00:48      1.16    0.43    0.73
  V1                   ORIFICE     0.271     0  00:24                      1.00
  V2                   ORIFICE     0.029     0  01:35                      0.24
  V3                   ORIFICE     0.112     0  01:58                      0.65
  V4                   ORIFICE     0.022     0  02:01                      0.35
  V5                   ORIFICE     0.039     0  00:24                      1.00
  V6                   ORIFICE     0.075     0  00:26                      0.43
  
  
  ***************************
  Flow Classification Summary
  ***************************
  
  -------------------------------------------------------------------------------------
                      Adjusted    ---------- Fraction of Time in Flow Class ---------- 
                       /Actual         Up    Down  Sub   Sup   Up    Down  Norm  Inlet 
  Conduit               Length    Dry  Dry   Dry   Crit  Crit  Crit  Crit  Ltd   Ctrl  
  -------------------------------------------------------------------------------------
  C1                      1.00   0.00  0.00  0.00  0.01  0.99  0.00  0.00  0.94  0.00
  C10                     1.00   0.00  0.00  0.00  0.86  0.14  0.00  0.00  0.89  0.00
  C11                     1.00   0.00  0.00  0.00  0.48  0.52  0.00  0.00  1.00  0.00
  C12                     1.00   0.00  0.00  0.00  0.58  0.41  0.00  0.00  0.84  0.00
  C13                     1.00   0.00  0.00  0.00  0.89  0.11  0.00  0.00  0.61  0.00
  C14                     1.00   0.01  0.01  0.00  0.00  0.98  0.00  0.00  0.42  0.00
  C15                     1.00   0.03  0.00  0.00  0.00  0.97  0.00  0.00  0.00  0.00
  C16                     1.00   0.00  0.03  0.00  0.24  0.73  0.00  0.00  0.12  0.00
  C17                     1.00   0.00  0.00  0.00  0.37  0.63  0.00  0.00  0.94  0.00
  C18                     1.00   0.00  0.00  0.00  0.89  0.11  0.00  0.00  0.94  0.00
  C19                     1.00   0.00  0.00  0.00  1.00  0.00  0.00  0.00  1.00  0.00
  C2                      1.00   0.00  0.00  0.00  0.88  0.11  0.00  0.00  0.95  0.00
  C20                     1.00   0.00  0.00  0.00  0.50  0.50  0.00  0.00  0.92  0.00
  C21                     1.00   0.00  0.00  0.00  0.02  0.98  0.00  0.00  0.00  0.00
  C22                     1.00   0.00  0.00  0.00  0.81  0.19  0.00  0.00  1.00  0.00
  C23                     1.00   0.00  0.00  0.00  0.85  0.14  0.00  0.00  0.83  0.00
  C3                      1.00   0.01  0.01  0.00  0.04  0.94  0.00  0.00  0.03  0.00
  C4                      1.00   0.00  0.00  0.00  0.78  0.22  0.00  0.00  0.88  0.00
  C5                      1.00   0.00  0.00  0.00  0.91  0.09  0.00  0.00  0.75  0.00
  C6                      1.00   0.00  0.00  0.00  0.41  0.59  0.00  0.00  0.01  0.00
  C7                      1.00   0.00  0.00  0.00  0.88  0.12  0.00  0.00  0.93  0.00
  C8                      1.00   0.00  0.00  0.00  0.37  0.63  0.00  0.00  0.00  0.00
  C9                      1.00   0.00  0.00  0.00  1.00  0.00  0.00  0.00  1.00  0.00
  
  
  *************************
  Conduit Surcharge Summary
  *************************
  
  ----------------------------------------------------------------------------
                                                           Hours        Hours 
                         --------- Hours Full --------   Above Full   Capacity
  Conduit                Both Ends  Upstream  Dnstream   Normal Flow   Limited
  ----------------------------------------------------------------------------
  C10                         0.01      0.01      2.91      0.01         0.01
  C13                         0.01      0.01      2.90      0.01         0.01
  C15                         0.01      0.61      0.01      0.63         0.01
  C18                         0.01      0.01      2.91      0.01         0.01
  C19                         0.01      0.01      0.01      0.01         0.01
  C21                         0.01      0.60      0.01      0.61         0.01
  C22                         0.01      0.01      0.18      0.01         0.01
  C23                         0.01      0.01      2.91      0.01         0.01
  C4                          0.01      0.01      2.95      0.01         0.01
  C5                          0.52      0.58      0.66      0.58         0.50
  C6                          0.01      0.54      0.01      0.47         0.01
  C7                          0.01      0.01      2.89      0.01         0.01
  C8                          0.01      0.74      0.01      0.75         0.01
  C9                          0.01      0.01      0.20      0.01         0.01
  

  Analysis begun on:  Sun Jul 17 20:55:01 2022
  Analysis ended on:  Sun Jul 17 20:55:01 2022
  Total elapsed time: < 1 sec