
  EPA STORM WATER MANAGEMENT MODEL - VERSION 5.1 (Build 5.3.0.dev0)
  --------------------------------------------------------------

  
  *********************************************************
  NOTE: The summary statistics displayed in this report are
  based on results found at every computational time step,  
  not just on results from each reporting time step.
  *********************************************************
  
  ****************
  Analysis Options
  ****************
  Flow Units ............... CMS
  Process Models:
    Rainfall/Runoff ........ YES
    RDII ................... NO
    Snowmelt ............... NO
    Groundwater ............ NO
    Flow Routing ........... YES
    Ponding Allowed ........ NO
    Water Quality .......... NO
  Infiltration Method ...... HORTON
  Flow Routing Method ...... DYNWAVE
  Surcharge Method ......... EXTRAN
  Starting Date ............ 02/28/2009 03:10:00
  Ending Date .............. 02/28/2009 22:35:00
  Antecedent Dry Days ...... 0.0
  Report Time Step ......... 00:05:00
  Wet Time Step ............ 00:05:00
  Dry Time Step ............ 01:00:00
  Routing Time Step ........ 30.00 sec
  Variable Time Step ....... YES
  Maximum Trials ........... 8
  Number of Threads ........ 1
  Head Tolerance ........... 0.001500 m
  
  
  **************************        Volume         Depth
  Runoff Quantity Continuity     hectare-m            mm
  **************************     ---------       -------
  Total Precipitation ......         2.303        12.778
  Evaporation Loss .........         0.000         0.000
  Infiltration Loss ........         0.000         0.000
  Surface Runoff ...........         2.285        12.682
  Final Storage ............         0.022         0.123
  Continuity Error (%) .....        -0.211
  
  
  **************************        Volume        Volume
  Flow Routing Continuity        hectare-m      10^6 ltr
  **************************     ---------     ---------
  Dry Weather Inflow .......         0.731         7.305
  Wet Weather Inflow .......         2.285        22.847
  Groundwater Inflow .......         0.000         0.000
  RDII Inflow ..............         0.000         0.000
  External Inflow ..........         0.000         0.000
  External Outflow .........         1.665        16.647
  Flooding Loss ............         0.432         4.322
  Evaporation Loss .........         0.000         0.000
  Exfiltration Loss ........         0.000         0.000
  Initial Stored Volume ....         0.000         0.000
  Final Stored Volume ......         0.698         6.977
  Continuity Error (%) .....         7.317
  
  
  *************************
  Highest Continuity Errors
  *************************
  Node T2 (34.18%)
  Node T6 (14.76%)
  Node T4 (13.95%)
  Node T3 (12.86%)
  Node T5 (8.50%)
  
  
  ***************************
  Time-Step Critical Elements
  ***************************
  Link C15 (36.54%)
  Link C21 (2.79%)
  
  
  ********************************
  Highest Flow Instability Indexes
  ********************************
  Link C13 (9)
  Link C23 (3)
  Link C18 (2)
  Link C11 (2)
  Link C21 (2)
  
  
  *************************
  Routing Time Step Summary
  *************************
  Minimum Time Step           :     0.00 sec
  Average Time Step           :    27.50 sec
  Maximum Time Step           :    30.00 sec
  Percent in Steady State     :    16.67
  Average Iterations per Step :     2.05
  Percent Not Converging      :     0.09
  
  
  ***************************
  Subcatchment Runoff Summary
  ***************************
  
  ------------------------------------------------------------------------------------------------------------------------------
                            Total      Total      Total      Total     Imperv       Perv      Total       Total     Peak  Runoff
                           Precip      Runon       Evap      Infil     Runoff     Runoff     Runoff      Runoff   Runoff   Coeff
  Subcatchment                 mm         mm         mm         mm         mm         mm         mm    10^6 ltr      CMS
  ------------------------------------------------------------------------------------------------------------------------------
  SC01                      17.11       0.00       0.00       0.00      17.10       0.00      17.10        5.64     0.95   0.999
  SC010                     17.11       0.00       0.00       0.00      17.06       0.00      17.06        2.00     0.27   0.997
  SC02                      10.26       0.00       0.00       0.00      10.19       0.00      10.19        2.32     0.13   0.993
  SC03                       9.43       0.00       0.00       0.00       9.36       0.00       9.36        1.69     0.10   0.993
  SC04                      10.26       0.00       0.00       0.00      10.13       0.00      10.13        0.70     0.03   0.987
  SC05                      17.11       0.00       0.00       0.00      17.09       0.00      17.09        2.67     0.42   0.999
  SC06                      12.25       0.00       0.00       0.00      12.02       0.00      12.02        3.91     0.17   0.982
  SC07                      10.26       0.00       0.00       0.00      10.13       0.00      10.13        0.48     0.02   0.987
  SC08                       9.43       0.00       0.00       0.00       9.32       0.00       9.32        2.61     0.13   0.988
  SC09                      12.25       0.00       0.00       0.00      12.10       0.00      12.10        0.83     0.04   0.988
  
  
  ******************
  Node Depth Summary
  ******************
  
  ---------------------------------------------------------------------------------
                                 Average  Maximum  Maximum  Time of Max    Reported
                                   Depth    Depth      HGL   Occurrence   Max Depth
  Node                 Type       Meters   Meters   Meters  days hr:min      Meters
  ---------------------------------------------------------------------------------
  CSO10                JUNCTION     0.14     1.00    31.00     0  06:39        1.00
  CSO7                 JUNCTION     0.09     0.13    34.13     0  08:26        0.12
  CSO8                 JUNCTION     0.11     0.22    32.22     0  03:30        0.22
  CSO9                 JUNCTION     0.10     0.17    40.17     0  05:05        0.17
  J1                   JUNCTION     0.08     0.22    34.22     0  06:40        0.21
  J10                  JUNCTION     0.09     0.15    29.15     0  03:36        0.15
  J11                  JUNCTION     0.09     0.16    31.16     0  03:36        0.16
  J12                  JUNCTION     0.55     1.01    27.01     0  09:42        1.00
  J13                  JUNCTION     0.06     0.10    29.10     0  08:27        0.10
  J14                  JUNCTION     0.12     0.19    20.19     0  12:42        0.19
  J15                  JUNCTION     0.18     0.34    15.34     0  06:44        0.34
  J16                  JUNCTION     0.08     0.24    30.24     0  06:40        0.22
  J17                  JUNCTION     0.05     0.14    20.14     0  08:30        0.14
  J18                  JUNCTION     0.06     0.16    29.16     0  06:44        0.16
  J19                  JUNCTION     0.16     0.17     8.17     0  03:36        0.17
  J2                   JUNCTION     0.07     0.08    25.08     0  07:26        0.08
  J3                   JUNCTION     0.12     0.15    18.15     0  12:45        0.15
  J4                   JUNCTION     0.11     0.15    33.15     0  02:07        0.15
  J5                   JUNCTION     0.06     0.09    32.09     0  02:06        0.09
  J6                   JUNCTION     0.06     0.12    25.12     0  11:19        0.12
  J7                   JUNCTION     0.08     0.13    39.13     0  05:07        0.13
  J8                   JUNCTION     0.10     0.16    36.16     0  05:20        0.16
  J9                   JUNCTION     0.10     0.16    29.16     0  06:35        0.16
  Out_to_WWTP          OUTFALL      0.16     0.17     6.17     0  06:18        0.17
  T1                   STORAGE      4.20     5.00    15.00     0  03:35        5.00
  T2                   STORAGE      3.33     4.71    25.71     0  15:23        4.71
  T3                   STORAGE      3.60     5.00    27.00     0  09:43        5.00
  T4                   STORAGE      3.68     5.00    32.00     0  09:32        5.00
  T5                   STORAGE      3.95     5.00    32.00     0  06:38        5.00
  T6                   STORAGE      3.63     5.00    36.00     0  05:26        5.00
  
  
  *******************
  Node Inflow Summary
  *******************
  
  -------------------------------------------------------------------------------------------------
                                  Maximum  Maximum                  Lateral       Total        Flow
                                  Lateral    Total  Time of Max      Inflow      Inflow     Balance
                                   Inflow   Inflow   Occurrence      Volume      Volume       Error
  Node                 Type           CMS      CMS  days hr:min    10^6 ltr    10^6 ltr     Percent
  -------------------------------------------------------------------------------------------------
  CSO10                JUNCTION     0.273    0.273     0  06:40        2.26        2.26      -0.230
  CSO7                 JUNCTION     0.029    0.029     0  08:25        1.02        1.02      -0.219
  CSO8                 JUNCTION     0.138    0.138     0  03:35        3.06        3.05      -0.029
  CSO9                 JUNCTION     0.043    0.043     0  05:05         1.2         1.2      -0.051
  J1                   JUNCTION     0.439    0.439     0  06:40        3.72        3.72      -0.400
  J10                  JUNCTION     0.105    0.238     0  03:34        2.41        5.45      -0.356
  J11                  JUNCTION     0.000    0.138     0  03:35           0        3.05      -0.051
  J12                  JUNCTION     0.000    0.364     0  05:25           0        10.6       0.490
  J13                  JUNCTION     0.151    0.151     0  08:25        3.19        3.19      -0.637
  J14                  JUNCTION     0.000    0.190     0  12:44           0        6.56       0.141
  J15                  JUNCTION     0.000    1.251     0  06:40           0        20.4       0.262
  J16                  JUNCTION     0.968    0.968     0  06:40        6.68        6.68      -0.408
  J17                  JUNCTION     0.000    0.123     0  08:30           0         1.2       0.251
  J18                  JUNCTION     0.000    0.202     0  06:44           0        2.26      -0.187
  J19                  JUNCTION     0.000    0.271     0  03:36           0        16.7       0.064
  J2                   JUNCTION     0.000    0.039     0  06:39           0        2.35       0.200
  J3                   JUNCTION     0.000    0.245     0  12:43           0        10.2      -0.271
  J4                   JUNCTION     0.000    0.029     0  08:26           0        1.03      -0.501
  J5                   JUNCTION     0.034    0.062     0  02:05       0.937        1.97      -0.392
  J6                   JUNCTION     0.000    0.080     0  10:21           0        1.23      -2.801
  J7                   JUNCTION     0.000    0.043     0  05:05           0         1.2       0.130
  J8                   JUNCTION     0.195    0.237     0  05:20        5.68        6.88      -0.097
  J9                   JUNCTION     0.000    0.175     0  05:30           0        4.81      -5.593
  Out_to_WWTP          OUTFALL      0.000    0.271     0  03:37           0        16.6       0.000
  T1                   STORAGE      0.000    1.019     0  06:44           0        20.3       2.695
  T2                   STORAGE      0.000    0.143     0  08:27           0        3.21      51.928
  T3                   STORAGE      0.000    0.353     0  05:25           0        10.5      14.755
  T4                   STORAGE      0.000    0.061     0  02:06           0        1.98      16.209
  T5                   STORAGE      0.000    0.428     0  06:40           0        3.73       9.292
  T6                   STORAGE      0.000    0.237     0  05:21           0        6.89      17.315
  
  
  **********************
  Node Surcharge Summary
  **********************
  
  Surcharging occurs when water rises above the top of the highest conduit.
  ---------------------------------------------------------------------
                                               Max. Height   Min. Depth
                                   Hours       Above Crown    Below Rim
  Node                 Type      Surcharged         Meters       Meters
  ---------------------------------------------------------------------
  CSO10                JUNCTION        0.15          0.560        0.000
  
  
  *********************
  Node Flooding Summary
  *********************
  
  Flooding refers to all water that overflows a node, whether it ponds or not.
  --------------------------------------------------------------------------
                                                             Total   Maximum
                                 Maximum   Time of Max       Flood    Ponded
                        Hours       Rate    Occurrence      Volume     Depth
  Node                 Flooded       CMS   days hr:min    10^6 ltr    Meters
  --------------------------------------------------------------------------
  CSO10                   0.09     0.070      0  06:40       0.013     0.000
  T1                      9.64     0.748      0  06:44       2.666     0.000
  T3                      1.68     0.139      0  09:45       0.361     0.000
  T4                      0.82     0.024      0  09:32       0.021     0.000
  T5                      7.27     0.386      0  06:41       0.742     0.000
  T6                      1.09     0.204      0  05:26       0.517     0.000
  
  
  **********************
  Storage Volume Summary
  **********************
  
  --------------------------------------------------------------------------------------------------
                         Average     Avg  Evap Exfil       Maximum     Max    Time of Max    Maximum
                          Volume    Pcnt  Pcnt  Pcnt        Volume    Pcnt     Occurrence    Outflow
  Storage Unit           1000 m3    Full  Loss  Loss       1000 m3    Full    days hr:min        CMS
  --------------------------------------------------------------------------------------------------
  T1                       0.588      84     0     0         0.700     100       0  03:35      0.271
  T2                       0.665      67     0     0         0.942      94       0  15:23      0.123
  T3                       1.871      72     0     0         2.600     100       0  09:43      0.190
  T4                       0.368      74     0     0         0.500     100       0  09:32      0.080
  T5                       0.395      79     0     0         0.500     100       0  06:38      0.039
  T6                       0.436      73     0     0         0.600     100       0  05:26      0.175
  
  
  ***********************
  Outfall Loading Summary
  ***********************
  
  -----------------------------------------------------------
                         Flow       Avg       Max       Total
                         Freq      Flow      Flow      Volume
  Outfall Node           Pcnt       CMS       CMS    10^6 ltr
  -----------------------------------------------------------
  Out_to_WWTP           99.32     0.240     0.271      16.647
  -----------------------------------------------------------
  System                99.32     0.240     0.271      16.647
  
  
  ********************
  Link Flow Summary
  ********************
  
  -----------------------------------------------------------------------------
                                 Maximum  Time of Max   Maximum    Max/    Max/
                                  |Flow|   Occurrence   |Veloc|    Full    Full
  Link                 Type          CMS  days hr:min     m/sec    Flow   Depth
  -----------------------------------------------------------------------------
  C1                   CONDUIT     0.039     0  07:19      1.10    0.01    0.12
  C10                  CONDUIT     0.237     0  05:21      2.18    0.02    0.55
  C11                  CONDUIT     0.238     0  12:45      1.74    0.01    0.11
  C12                  CONDUIT     0.175     0  06:35      1.42    0.01    0.29
  C13                  CONDUIT     0.353     0  05:25      1.70    0.02    0.75
  C14                  CONDUIT     0.271     0  03:37      2.08    0.02    0.09
  C15                  CONDUIT     0.138     0  03:35      2.17    0.44    0.42
  C16                  CONDUIT     0.137     0  03:37      1.20    0.01    0.08
  C17                  CONDUIT     0.237     0  03:36      1.88    0.01    0.28
  C18                  CONDUIT     0.143     0  08:27      1.40    0.01    0.53
  C19                  CONDUIT     0.120     0  08:30      1.27    0.04    0.19
  C2                   CONDUIT     0.076     0  11:19      1.63    0.09    0.22
  C20                  CONDUIT     0.941     0  06:40      3.91    0.03    0.14
  C21                  CONDUIT     0.202     0  06:44      1.87    1.16    0.69
  C22                  CONDUIT     0.201     0  06:44      1.57    0.09    0.31
  C23                  CONDUIT     1.019     0  06:44      1.26    0.11    0.61
  C3                   CONDUIT     0.191     0  12:43      2.19    0.07    0.17
  C4                   CONDUIT     0.428     0  06:40      6.63    0.10    0.61
  C5                   CONDUIT     0.029     0  08:26      1.50    0.49    0.53
  C6                   CONDUIT     0.027     0  02:08      1.08    0.44    0.39
  C7                   CONDUIT     0.061     0  02:06      1.00    0.02    0.54
  C8                   CONDUIT     0.043     0  05:05      1.39    0.54    0.48
  C9                   CONDUIT     0.043     0  05:08      0.90    0.15    0.29
  V1                   ORIFICE     0.271     0  03:36                      1.00
  V2                   ORIFICE     0.123     0  08:30                      1.00
  V3                   ORIFICE     0.190     0  12:44                      1.00
  V4                   ORIFICE     0.080     0  10:21                      1.00
  V5                   ORIFICE     0.039     0  06:39                      1.00
  V6                   ORIFICE     0.175     0  05:30                      1.00
  
  
  ***************************
  Flow Classification Summary
  ***************************
  
  -------------------------------------------------------------------------------------
                      Adjusted    ---------- Fraction of Time in Flow Class ---------- 
                       /Actual         Up    Down  Sub   Sup   Up    Down  Norm  Inlet 
  Conduit               Length    Dry  Dry   Dry   Crit  Crit  Crit  Crit  Ltd   Ctrl  
  -------------------------------------------------------------------------------------
  C1                      1.00   0.00  0.00  0.00  0.16  0.84  0.00  0.00  0.96  0.00
  C10                     1.00   0.00  0.00  0.00  0.97  0.03  0.00  0.00  0.98  0.00
  C11                     1.00   0.00  0.00  0.00  0.22  0.78  0.00  0.00  1.00  0.00
  C12                     1.00   0.00  0.00  0.00  0.92  0.08  0.00  0.00  0.99  0.00
  C13                     1.00   0.00  0.00  0.00  0.92  0.08  0.00  0.00  0.27  0.00
  C14                     1.00   0.00  0.00  0.00  0.01  0.99  0.00  0.00  0.18  0.00
  C15                     1.00   0.03  0.00  0.00  0.00  0.96  0.00  0.00  0.00  0.00
  C16                     1.00   0.00  0.03  0.00  0.34  0.63  0.00  0.00  0.31  0.00
  C17                     1.00   0.00  0.00  0.00  0.63  0.37  0.00  0.00  0.99  0.00
  C18                     1.00   0.00  0.00  0.00  0.94  0.06  0.00  0.00  0.97  0.00
  C19                     1.00   0.00  0.00  0.00  1.00  0.00  0.00  0.00  1.00  0.00
  C2                      1.00   0.00  0.00  0.00  0.79  0.21  0.00  0.00  0.99  0.00
  C20                     1.00   0.00  0.00  0.00  0.40  0.60  0.00  0.00  0.99  0.00
  C21                     1.00   0.00  0.00  0.00  0.00  1.00  0.00  0.00  0.00  0.00
  C22                     1.00   0.00  0.00  0.00  0.93  0.07  0.00  0.00  1.00  0.00
  C23                     1.00   0.00  0.00  0.00  0.95  0.05  0.00  0.00  0.96  0.00
  C3                      1.00   0.00  0.00  0.00  0.05  0.94  0.00  0.00  0.23  0.00
  C4                      1.00   0.00  0.00  0.00  0.96  0.04  0.00  0.00  0.98  0.00
  C5                      1.00   0.00  0.00  0.00  0.92  0.08  0.00  0.00  0.99  0.00
  C6                      1.00   0.00  0.00  0.00  0.01  0.99  0.00  0.00  0.00  0.00
  C7                      1.00   0.00  0.00  0.00  0.94  0.06  0.00  0.00  0.96  0.00
  C8                      1.00   0.00  0.00  0.00  0.05  0.95  0.00  0.00  0.00  0.00
  C9                      1.00   0.00  0.00  0.00  1.00  0.00  0.00  0.00  0.99  0.00
  
  
  *************************
  Conduit Surcharge Summary
  *************************
  
  ----------------------------------------------------------------------------
                                                           Hours        Hours 
                         --------- Hours Full --------   Above Full   Capacity
  Conduit                Both Ends  Upstream  Dnstream   Normal Flow   Limited
  ----------------------------------------------------------------------------
  C10                         0.01      0.01     16.25      0.01         0.01
  C13                         0.01      0.01     15.22      0.01         0.01
  C18                         0.01      0.01     14.92      0.01         0.01
  C21                         0.01      0.14      0.01      0.12         0.01
  C23                         0.01      0.01     17.53      0.01         0.01
  C4                          0.01      0.01     17.58      0.01         0.01
  C7                          0.01      0.01     17.00      0.01         0.01
  

  Analysis begun on:  Sun Jul 17 21:21:59 2022
  Analysis ended on:  Sun Jul 17 21:22:01 2022
  Total elapsed time: 00:00:02