
  EPA STORM WATER MANAGEMENT MODEL - VERSION 5.1 (Build 5.3.0.dev0)
  --------------------------------------------------------------

  
  *********************************************************
  NOTE: The summary statistics displayed in this report are
  based on results found at every computational time step,  
  not just on results from each reporting time step.
  *********************************************************
  
  ****************
  Analysis Options
  ****************
  Flow Units ............... CMS
  Process Models:
    Rainfall/Runoff ........ YES
    RDII ................... NO
    Snowmelt ............... NO
    Groundwater ............ NO
    Flow Routing ........... YES
    Ponding Allowed ........ NO
    Water Quality .......... NO
  Infiltration Method ...... HORTON
  Flow Routing Method ...... DYNWAVE
  Surcharge Method ......... EXTRAN
  Starting Date ............ 08/20/2009 01:05:00
  Ending Date .............. 08/20/2009 08:25:00
  Antecedent Dry Days ...... 0.0
  Report Time Step ......... 00:05:00
  Wet Time Step ............ 00:05:00
  Dry Time Step ............ 01:00:00
  Routing Time Step ........ 30.00 sec
  Variable Time Step ....... YES
  Maximum Trials ........... 8
  Number of Threads ........ 1
  Head Tolerance ........... 0.001500 m
  
  
  **************************        Volume         Depth
  Runoff Quantity Continuity     hectare-m            mm
  **************************     ---------       -------
  Total Precipitation ......         1.047         5.811
  Evaporation Loss .........         0.000         0.000
  Infiltration Loss ........         0.000         0.000
  Surface Runoff ...........         1.020         5.660
  Final Storage ............         0.034         0.188
  Continuity Error (%) .....        -0.626
  
  
  **************************        Volume        Volume
  Flow Routing Continuity        hectare-m      10^6 ltr
  **************************     ---------     ---------
  Dry Weather Inflow .......         0.161         1.615
  Wet Weather Inflow .......         1.019        10.193
  Groundwater Inflow .......         0.000         0.000
  RDII Inflow ..............         0.000         0.000
  External Inflow ..........         0.000         0.000
  External Outflow .........         0.453         4.525
  Flooding Loss ............         0.032         0.316
  Evaporation Loss .........         0.000         0.000
  Exfiltration Loss ........         0.000         0.000
  Initial Stored Volume ....         0.000         0.000
  Final Stored Volume ......         0.561         5.612
  Continuity Error (%) .....        11.469
  
  
  *************************
  Highest Continuity Errors
  *************************
  Node T2 (33.03%)
  Node T6 (24.91%)
  Node T4 (21.30%)
  Node T5 (21.22%)
  Node T3 (20.88%)
  
  
  ***************************
  Time-Step Critical Elements
  ***************************
  Link C15 (41.46%)
  
  
  ********************************
  Highest Flow Instability Indexes
  ********************************
  Link C20 (3)
  Link C5 (2)
  Link C15 (2)
  Link C14 (2)
  Link C4 (2)
  
  
  *************************
  Routing Time Step Summary
  *************************
  Minimum Time Step           :     0.11 sec
  Average Time Step           :    26.19 sec
  Maximum Time Step           :    30.00 sec
  Percent in Steady State     :     5.34
  Average Iterations per Step :     2.40
  Percent Not Converging      :     1.36
  
  
  ***************************
  Subcatchment Runoff Summary
  ***************************
  
  ------------------------------------------------------------------------------------------------------------------------------
                            Total      Total      Total      Total     Imperv       Perv      Total       Total     Peak  Runoff
                           Precip      Runon       Evap      Infil     Runoff     Runoff     Runoff      Runoff   Runoff   Coeff
  Subcatchment                 mm         mm         mm         mm         mm         mm         mm    10^6 ltr      CMS
  ------------------------------------------------------------------------------------------------------------------------------
  SC01                       3.73       0.00       0.00       0.00       3.63       0.00       3.63        1.20     0.22   0.972
  SC010                      3.73       0.00       0.00       0.00       3.58       0.00       3.58        0.42     0.07   0.961
  SC02                       5.79       0.00       0.00       0.00       5.70       0.00       5.70        1.30     0.51   0.985
  SC03                       7.40       0.00       0.00       0.00       7.39       0.00       7.39        1.33     0.99   0.999
  SC04                       5.79       0.00       0.00       0.00       5.55       0.00       5.55        0.38     0.10   0.958
  SC05                       3.73       0.00       0.00       0.00       3.62       0.00       3.62        0.56     0.10   0.969
  SC06                       7.16       0.00       0.00       0.00       6.84       0.00       6.84        2.23     0.68   0.955
  SC07                       5.79       0.00       0.00       0.00       5.55       0.00       5.55        0.26     0.07   0.958
  SC08                       7.40       0.00       0.00       0.00       7.26       0.00       7.26        2.03     1.05   0.982
  SC09                       7.16       0.00       0.00       0.00       6.99       0.00       6.99        0.48     0.19   0.976
  
  
  ******************
  Node Depth Summary
  ******************
  
  ---------------------------------------------------------------------------------
                                 Average  Maximum  Maximum  Time of Max    Reported
                                   Depth    Depth      HGL   Occurrence   Max Depth
  Node                 Type       Meters   Meters   Meters  days hr:min      Meters
  ---------------------------------------------------------------------------------
  CSO10                JUNCTION     0.10     0.21    30.21     0  02:35        0.21
  CSO7                 JUNCTION     0.10     0.55    34.55     0  00:41        0.52
  CSO8                 JUNCTION     0.29     2.00    34.00     0  00:30        2.00
  CSO9                 JUNCTION     0.25     2.00    42.00     0  00:27        2.00
  J1                   JUNCTION     0.06     0.11    34.11     0  02:35        0.11
  J10                  JUNCTION     0.11     0.36    29.36     0  00:35        0.35
  J11                  JUNCTION     0.12     0.30    31.30     0  00:45        0.30
  J12                  JUNCTION     0.15     0.38    26.38     0  00:37        0.37
  J13                  JUNCTION     0.07     0.19    29.19     0  00:40        0.19
  J14                  JUNCTION     0.12     0.14    20.14     0  07:19        0.14
  J15                  JUNCTION     0.15     0.22    15.22     0  02:39        0.22
  J16                  JUNCTION     0.06     0.12    30.12     0  02:35        0.12
  J17                  JUNCTION     0.06     0.06    20.06     0  05:53        0.06
  J18                  JUNCTION     0.05     0.10    29.10     0  02:37        0.09
  J19                  JUNCTION     0.13     0.16     8.16     0  03:48        0.16
  J2                   JUNCTION     0.05     0.06    25.06     0  04:41        0.06
  J3                   JUNCTION     0.10     0.12    18.12     0  06:38        0.12
  J4                   JUNCTION     0.11     0.27    33.27     0  00:44        0.27
  J5                   JUNCTION     0.06     0.13    32.13     0  00:42        0.13
  J6                   JUNCTION     0.05     0.06    25.06     0  05:52        0.06
  J7                   JUNCTION     0.09     0.23    39.23     0  00:41        0.23
  J8                   JUNCTION     0.12     0.29    36.29     0  00:35        0.29
  J9                   JUNCTION     0.10     0.11    29.11     0  05:31        0.11
  Out_to_WWTP          OUTFALL      0.13     0.16     6.16     0  03:49        0.16
  T1                   STORAGE      2.17     3.52    13.52     0  03:48        3.52
  T2                   STORAGE      1.86     2.47    23.47     0  05:51        2.47
  T3                   STORAGE      2.43     3.48    25.48     0  07:13        3.48
  T4                   STORAGE      1.67     2.29    29.29     0  05:50        2.29
  T5                   STORAGE      1.09     1.69    28.69     0  04:39        1.69
  T6                   STORAGE      4.06     5.00    36.00     0  04:44        5.00
  
  
  *******************
  Node Inflow Summary
  *******************
  
  -------------------------------------------------------------------------------------------------
                                  Maximum  Maximum                  Lateral       Total        Flow
                                  Lateral    Total  Time of Max      Inflow      Inflow     Balance
                                   Inflow   Inflow   Occurrence      Volume      Volume       Error
  Node                 Type           CMS      CMS  days hr:min    10^6 ltr    10^6 ltr     Percent
  -------------------------------------------------------------------------------------------------
  CSO10                JUNCTION     0.069    0.069     0  02:35       0.479        0.48       0.091
  CSO7                 JUNCTION     0.070    0.070     0  00:40       0.385       0.385       0.185
  CSO8                 JUNCTION     1.054    1.054     0  00:35        2.12        2.12       0.008
  CSO9                 JUNCTION     0.195    0.195     0  00:35       0.563       0.564       0.069
  J1                   JUNCTION     0.105    0.105     0  02:35       0.798       0.799       0.017
  J10                  JUNCTION     0.991    1.469     0  00:35        1.49        3.36      -0.003
  J11                  JUNCTION     0.000    0.486     0  00:45           0        1.88       0.279
  J12                  JUNCTION     0.000    1.435     0  00:36           0        5.11       0.085
  J13                  JUNCTION     0.513    0.513     0  00:40        1.49        1.49      -0.665
  J14                  JUNCTION     0.000    0.103     0  07:13           0        2.23       0.284
  J15                  JUNCTION     0.000    0.431     0  02:36           0        5.51       1.273
  J16                  JUNCTION     0.227    0.227     0  02:35        1.43        1.43      -0.012
  J17                  JUNCTION     0.000    0.023     0  05:51           0       0.527       0.904
  J18                  JUNCTION     0.000    0.069     0  02:35           0        0.48       0.060
  J19                  JUNCTION     0.000    0.227     0  03:48           0        4.54       0.227
  J2                   JUNCTION     0.000    0.023     0  04:39           0        0.47       0.830
  J3                   JUNCTION     0.000    0.144     0  06:36           0        3.11       1.039
  J4                   JUNCTION     0.000    0.070     0  00:40           0       0.384       0.947
  J5                   JUNCTION     0.100    0.154     0  00:40       0.436       0.818       0.001
  J6                   JUNCTION     0.000    0.019     0  05:51           0       0.422       0.747
  J7                   JUNCTION     0.000    0.127     0  00:40           0       0.527       0.522
  J8                   JUNCTION     0.681    0.804     0  00:35        2.62        3.14      -0.022
  J9                   JUNCTION     0.000    0.075     0  04:44           0        1.77       1.130
  Out_to_WWTP          OUTFALL      0.000    0.227     0  03:49           0        4.53       0.000
  T1                   STORAGE      0.000    0.410     0  02:39           0        5.44       9.936
  T2                   STORAGE      0.000    0.508     0  00:40           0         1.5      49.314
  T3                   STORAGE      0.000    1.343     0  00:37           0        5.11      26.383
  T4                   STORAGE      0.000    0.152     0  00:42           0       0.818      27.068
  T5                   STORAGE      0.000    0.105     0  02:36           0       0.799      26.936
  T6                   STORAGE      0.000    0.790     0  00:35           0        3.14      33.179
  
  
  **********************
  Node Surcharge Summary
  **********************
  
  Surcharging occurs when water rises above the top of the highest conduit.
  ---------------------------------------------------------------------
                                               Max. Height   Min. Depth
                                   Hours       Above Crown    Below Rim
  Node                 Type      Surcharged         Meters       Meters
  ---------------------------------------------------------------------
  CSO7                 JUNCTION        0.11          0.291        0.654
  CSO8                 JUNCTION        0.39          1.547        0.000
  CSO9                 JUNCTION        0.37          1.682        0.000
  
  
  *********************
  Node Flooding Summary
  *********************
  
  Flooding refers to all water that overflows a node, whether it ponds or not.
  --------------------------------------------------------------------------
                                                             Total   Maximum
                                 Maximum   Time of Max       Flood    Ponded
                        Hours       Rate    Occurrence      Volume     Depth
  Node                 Flooded       CMS   days hr:min    10^6 ltr    Meters
  --------------------------------------------------------------------------
  CSO8                    0.26     0.561      0  00:35       0.243     0.000
  CSO9                    0.23     0.069      0  00:35       0.036     0.000
  T6                      0.79     0.023      0  05:04       0.037     0.000
  
  
  **********************
  Storage Volume Summary
  **********************
  
  --------------------------------------------------------------------------------------------------
                         Average     Avg  Evap Exfil       Maximum     Max    Time of Max    Maximum
                          Volume    Pcnt  Pcnt  Pcnt        Volume    Pcnt     Occurrence    Outflow
  Storage Unit           1000 m3    Full  Loss  Loss       1000 m3    Full    days hr:min        CMS
  --------------------------------------------------------------------------------------------------
  T1                       0.304      43     0     0         0.492      70       0  03:48      0.227
  T2                       0.372      37     0     0         0.493      49       0  05:51      0.023
  T3                       1.265      49     0     0         1.810      70       0  07:13      0.103
  T4                       0.167      33     0     0         0.229      46       0  05:50      0.019
  T5                       0.109      22     0     0         0.169      34       0  04:39      0.023
  T6                       0.487      81     0     0         0.600     100       0  04:44      0.075
  
  
  ***********************
  Outfall Loading Summary
  ***********************
  
  -----------------------------------------------------------
                         Flow       Avg       Max       Total
                         Freq      Flow      Flow      Volume
  Outfall Node           Pcnt       CMS       CMS    10^6 ltr
  -----------------------------------------------------------
  Out_to_WWTP           98.10     0.164     0.227       4.525
  -----------------------------------------------------------
  System                98.10     0.164     0.227       4.525
  
  
  ********************
  Link Flow Summary
  ********************
  
  -----------------------------------------------------------------------------
                                 Maximum  Time of Max   Maximum    Max/    Max/
                                  |Flow|   Occurrence   |Veloc|    Full    Full
  Link                 Type          CMS  days hr:min     m/sec    Flow   Depth
  -----------------------------------------------------------------------------
  C1                   CONDUIT     0.023     0  04:41      0.68    0.01    0.09
  C10                  CONDUIT     0.790     0  00:35      2.35    0.08    0.59
  C11                  CONDUIT     0.144     0  06:38      1.55    0.01    0.08
  C12                  CONDUIT     0.075     0  05:31      1.08    0.01    0.11
  C13                  CONDUIT     1.343     0  00:37      2.94    0.08    0.55
  C14                  CONDUIT     0.227     0  03:49      1.97    0.01    0.08
  C15                  CONDUIT     0.486     0  00:45      3.52    1.55    0.83
  C16                  CONDUIT     0.486     0  00:42      1.79    0.05    0.16
  C17                  CONDUIT     1.410     0  00:36      3.63    0.07    0.18
  C18                  CONDUIT     0.508     0  00:40      2.82    0.02    0.52
  C19                  CONDUIT     0.023     0  05:53      0.51    0.01    0.14
  C2                   CONDUIT     0.019     0  05:52      0.72    0.02    0.15
  C20                  CONDUIT     0.226     0  02:36      2.60    0.01    0.08
  C21                  CONDUIT     0.069     0  02:35      1.47    0.40    0.35
  C22                  CONDUIT     0.068     0  02:37      0.98    0.03    0.20
  C23                  CONDUIT     0.410     0  02:39      1.96    0.05    0.57
  C3                   CONDUIT     0.103     0  07:14      1.72    0.04    0.13
  C4                   CONDUIT     0.105     0  02:36      1.90    0.03    0.55
  C5                   CONDUIT     0.070     0  00:40      1.38    1.20    1.00
  C6                   CONDUIT     0.060     0  00:47      1.27    0.95    0.67
  C7                   CONDUIT     0.152     0  00:42      1.91    0.04    0.55
  C8                   CONDUIT     0.127     0  00:40      1.87    1.60    0.86
  C9                   CONDUIT     0.127     0  00:41      1.32    0.43    0.52
  V1                   ORIFICE     0.227     0  03:48                      1.00
  V2                   ORIFICE     0.023     0  05:51                      0.24
  V3                   ORIFICE     0.103     0  07:13                      0.65
  V4                   ORIFICE     0.019     0  05:51                      0.35
  V5                   ORIFICE     0.023     0  04:39                      1.00
  V6                   ORIFICE     0.075     0  04:44                      0.43
  
  
  ***************************
  Flow Classification Summary
  ***************************
  
  -------------------------------------------------------------------------------------
                      Adjusted    ---------- Fraction of Time in Flow Class ---------- 
                       /Actual         Up    Down  Sub   Sup   Up    Down  Norm  Inlet 
  Conduit               Length    Dry  Dry   Dry   Crit  Crit  Crit  Crit  Ltd   Ctrl  
  -------------------------------------------------------------------------------------
  C1                      1.00   0.00  0.00  0.00  0.91  0.09  0.00  0.00  0.93  0.00
  C10                     1.00   0.00  0.00  0.00  0.93  0.07  0.00  0.00  0.95  0.00
  C11                     1.00   0.00  0.00  0.00  0.21  0.79  0.00  0.00  1.00  0.00
  C12                     1.00   0.00  0.00  0.00  0.43  0.56  0.00  0.00  1.00  0.00
  C13                     1.00   0.00  0.00  0.00  0.89  0.11  0.00  0.00  0.92  0.00
  C14                     1.00   0.01  0.00  0.00  0.01  0.98  0.00  0.00  0.45  0.00
  C15                     1.00   0.02  0.00  0.00  0.00  0.98  0.00  0.00  0.00  0.00
  C16                     1.00   0.00  0.02  0.00  0.09  0.88  0.00  0.00  0.05  0.00
  C17                     1.00   0.00  0.00  0.00  0.16  0.84  0.00  0.00  0.93  0.00
  C18                     1.00   0.00  0.00  0.00  0.92  0.08  0.00  0.00  0.95  0.00
  C19                     1.00   0.00  0.00  0.00  1.00  0.00  0.00  0.00  1.00  0.00
  C2                      1.00   0.00  0.00  0.00  0.92  0.07  0.00  0.00  0.99  0.00
  C20                     1.00   0.00  0.00  0.00  0.63  0.37  0.00  0.00  0.97  0.00
  C21                     1.00   0.00  0.00  0.00  0.00  1.00  0.00  0.00  0.00  0.00
  C22                     1.00   0.00  0.00  0.00  0.92  0.08  0.00  0.00  1.00  0.00
  C23                     1.00   0.00  0.00  0.00  0.87  0.13  0.00  0.00  0.92  0.00
  C3                      1.00   0.00  0.01  0.00  0.04  0.95  0.00  0.00  0.05  0.00
  C4                      1.00   0.00  0.00  0.00  0.89  0.11  0.00  0.00  0.93  0.00
  C5                      1.00   0.00  0.00  0.00  0.84  0.16  0.00  0.00  0.91  0.00
  C6                      1.00   0.00  0.00  0.00  0.10  0.90  0.00  0.00  0.01  0.00
  C7                      1.00   0.00  0.00  0.00  0.89  0.11  0.00  0.00  0.94  0.00
  C8                      1.00   0.00  0.00  0.00  0.11  0.89  0.00  0.00  0.00  0.00
  C9                      1.00   0.00  0.00  0.00  1.00  0.00  0.00  0.00  1.00  0.00
  
  
  *************************
  Conduit Surcharge Summary
  *************************
  
  ----------------------------------------------------------------------------
                                                           Hours        Hours 
                         --------- Hours Full --------   Above Full   Capacity
  Conduit                Both Ends  Upstream  Dnstream   Normal Flow   Limited
  ----------------------------------------------------------------------------
  C10                         0.01      0.01      6.70      0.01         0.01
  C13                         0.01      0.01      6.20      0.01         0.01
  C15                         0.01      0.39      0.01      0.41         0.01
  C18                         0.01      0.01      4.37      0.01         0.01
  C23                         0.01      0.01      4.90      0.01         0.01
  C4                          0.01      0.01      4.57      0.01         0.01
  C5                          0.07      0.11      0.13      0.16         0.06
  C7                          0.01      0.01      6.40      0.01         0.01
  C8                          0.01      0.37      0.01      0.38         0.01
  

  Analysis begun on:  Sun Jul 17 21:38:28 2022
  Analysis ended on:  Sun Jul 17 21:38:28 2022
  Total elapsed time: < 1 sec