
  EPA STORM WATER MANAGEMENT MODEL - VERSION 5.1 (Build 5.3.0.dev0)
  --------------------------------------------------------------

  
  *********************************************************
  NOTE: The summary statistics displayed in this report are
  based on results found at every computational time step,  
  not just on results from each reporting time step.
  *********************************************************
  
  ****************
  Analysis Options
  ****************
  Flow Units ............... CMS
  Process Models:
    Rainfall/Runoff ........ YES
    RDII ................... NO
    Snowmelt ............... NO
    Groundwater ............ NO
    Flow Routing ........... YES
    Ponding Allowed ........ NO
    Water Quality .......... NO
  Infiltration Method ...... HORTON
  Flow Routing Method ...... DYNWAVE
  Surcharge Method ......... EXTRAN
  Starting Date ............ 04/04/2007 12:30:00
  Ending Date .............. 04/04/2007 20:25:00
  Antecedent Dry Days ...... 0.0
  Report Time Step ......... 00:05:00
  Wet Time Step ............ 00:05:00
  Dry Time Step ............ 01:00:00
  Routing Time Step ........ 30.00 sec
  Variable Time Step ....... YES
  Maximum Trials ........... 8
  Number of Threads ........ 1
  Head Tolerance ........... 0.001500 m
  
  
  **************************        Volume         Depth
  Runoff Quantity Continuity     hectare-m            mm
  **************************     ---------       -------
  Total Precipitation ......         1.718         9.533
  Evaporation Loss .........         0.000         0.000
  Infiltration Loss ........         0.000         0.000
  Surface Runoff ...........         1.696         9.411
  Final Storage ............         0.033         0.183
  Continuity Error (%) .....        -0.651
  
  
  **************************        Volume        Volume
  Flow Routing Continuity        hectare-m      10^6 ltr
  **************************     ---------     ---------
  Dry Weather Inflow .......         0.328         3.279
  Wet Weather Inflow .......         1.694        16.944
  Groundwater Inflow .......         0.000         0.000
  RDII Inflow ..............         0.000         0.000
  External Inflow ..........         0.000         0.000
  External Outflow .........         0.500         5.004
  Flooding Loss ............         0.686         6.861
  Evaporation Loss .........         0.000         0.000
  Exfiltration Loss ........         0.000         0.000
  Initial Stored Volume ....         0.000         0.000
  Final Stored Volume ......         0.631         6.311
  Continuity Error (%) .....        10.126
  
  
  *************************
  Highest Continuity Errors
  *************************
  Node T2 (34.93%)
  Node T3 (31.07%)
  Node T4 (24.30%)
  Node T5 (16.83%)
  Node T6 (15.40%)
  
  
  ***************************
  Time-Step Critical Elements
  ***************************
  Link C15 (19.49%)
  Link C21 (19.30%)
  Link C8 (9.70%)
  
  
  ********************************
  Highest Flow Instability Indexes
  ********************************
  Link C11 (2)
  Link C20 (2)
  Link V4 (2)
  Link C23 (2)
  Link C5 (2)
  
  
  *************************
  Routing Time Step Summary
  *************************
  Minimum Time Step           :     1.72 sec
  Average Time Step           :    26.23 sec
  Maximum Time Step           :    30.00 sec
  Percent in Steady State     :     8.33
  Average Iterations per Step :     2.34
  Percent Not Converging      :     2.21
  
  
  ***************************
  Subcatchment Runoff Summary
  ***************************
  
  ------------------------------------------------------------------------------------------------------------------------------
                            Total      Total      Total      Total     Imperv       Perv      Total       Total     Peak  Runoff
                           Precip      Runon       Evap      Infil     Runoff     Runoff     Runoff      Runoff   Runoff   Coeff
  Subcatchment                 mm         mm         mm         mm         mm         mm         mm    10^6 ltr      CMS
  ------------------------------------------------------------------------------------------------------------------------------
  SC01                      13.35       0.00       0.00       0.00      13.32       0.00      13.32        4.39     1.67   0.998
  SC010                     13.35       0.00       0.00       0.00      13.23       0.00      13.23        1.55     0.53   0.991
  SC02                       9.76       0.00       0.00       0.00       9.72       0.00       9.72        2.21     1.41   0.996
  SC03                       3.07       0.00       0.00       0.00       3.01       0.00       3.01        0.54     0.09   0.981
  SC04                       9.76       0.00       0.00       0.00       9.52       0.00       9.52        0.66     0.28   0.975
  SC05                      13.35       0.00       0.00       0.00      13.30       0.00      13.30        2.07     0.76   0.996
  SC06                      11.03       0.00       0.00       0.00      10.73       0.00      10.73        3.49     1.37   0.973
  SC07                       9.76       0.00       0.00       0.00       9.52       0.00       9.52        0.45     0.19   0.976
  SC08                       3.07       0.00       0.00       0.00       2.95       0.00       2.95        0.83     0.11   0.961
  SC09                      11.03       0.00       0.00       0.00      10.91       0.00      10.91        0.75     0.36   0.989
  
  
  ******************
  Node Depth Summary
  ******************
  
  ---------------------------------------------------------------------------------
                                 Average  Maximum  Maximum  Time of Max    Reported
                                   Depth    Depth      HGL   Occurrence   Max Depth
  Node                 Type       Meters   Meters   Meters  days hr:min      Meters
  ---------------------------------------------------------------------------------
  CSO10                JUNCTION     0.25     1.00    31.00     0  04:27        1.00
  CSO7                 JUNCTION     0.20     1.20    35.20     0  03:48        1.20
  CSO8                 JUNCTION     0.10     0.20    32.20     0  01:20        0.20
  CSO9                 JUNCTION     0.28     2.00    42.00     0  03:49        2.00
  J1                   JUNCTION     0.09     0.29    34.29     0  04:35        0.29
  J10                  JUNCTION     0.08     0.14    29.14     0  01:22        0.14
  J11                  JUNCTION     0.08     0.15    31.15     0  01:22        0.15
  J12                  JUNCTION     0.13     0.19    26.19     0  04:10        0.19
  J13                  JUNCTION     0.07     0.31    29.31     0  03:55        0.31
  J14                  JUNCTION     0.09     0.15    20.15     0  03:58        0.15
  J15                  JUNCTION     0.19     0.48    15.48     0  04:36        0.47
  J16                  JUNCTION     0.09     0.31    30.31     0  04:35        0.31
  J17                  JUNCTION     0.06     0.14    20.14     0  05:15        0.14
  J18                  JUNCTION     0.07     0.16    29.16     0  05:14        0.16
  J19                  JUNCTION     0.13     0.17     8.17     0  04:35        0.17
  J2                   JUNCTION     0.06     0.08    25.08     0  06:03        0.08
  J3                   JUNCTION     0.09     0.13    18.13     0  04:10        0.13
  J4                   JUNCTION     0.17     0.87    33.87     0  03:52        0.75
  J5                   JUNCTION     0.07     0.20    32.20     0  03:56        0.19
  J6                   JUNCTION     0.06     0.12    25.12     0  05:00        0.12
  J7                   JUNCTION     0.09     0.23    39.23     0  04:20        0.23
  J8                   JUNCTION     0.13     0.40    36.40     0  04:05        0.40
  J9                   JUNCTION     0.11     0.16    29.16     0  05:21        0.16
  Out_to_WWTP          OUTFALL      0.13     0.17     6.17     0  04:35        0.17
  T1                   STORAGE      2.67     5.00    15.00     0  04:34        5.00
  T2                   STORAGE      2.56     4.62    25.62     0  07:33        4.62
  T3                   STORAGE      1.86     3.02    25.02     0  06:37        3.02
  T4                   STORAGE      2.28     4.31    31.31     0  06:08        4.31
  T5                   STORAGE      2.62     5.00    32.00     0  04:42        5.00
  T6                   STORAGE      2.84     5.00    36.00     0  04:08        5.00
  
  
  *******************
  Node Inflow Summary
  *******************
  
  -------------------------------------------------------------------------------------------------
                                  Maximum  Maximum                  Lateral       Total        Flow
                                  Lateral    Total  Time of Max      Inflow      Inflow     Balance
                                   Inflow   Inflow   Occurrence      Volume      Volume       Error
  Node                 Type           CMS      CMS  days hr:min    10^6 ltr    10^6 ltr     Percent
  -------------------------------------------------------------------------------------------------
  CSO10                JUNCTION     0.529    0.529     0  04:35        1.67        1.67      -0.217
  CSO7                 JUNCTION     0.198    0.198     0  03:55       0.695       0.698      -0.054
  CSO8                 JUNCTION     0.121    0.121     0  01:20        1.03        1.03      -0.064
  CSO9                 JUNCTION     0.362    0.362     0  03:55       0.917       0.918      -0.062
  J1                   JUNCTION     0.778    0.778     0  04:35        2.54        2.53      -0.506
  J10                  JUNCTION     0.104    0.213     0  01:20       0.865         1.9      -0.305
  J11                  JUNCTION     0.000    0.121     0  01:20           0        1.03      -0.640
  J12                  JUNCTION     0.000    0.354     0  04:09           0        4.09      -0.039
  J13                  JUNCTION     1.420    1.420     0  03:55         2.6        2.62      -0.398
  J14                  JUNCTION     0.000    0.115     0  04:10           0        1.25       0.304
  J15                  JUNCTION     0.000    2.103     0  04:35           0        9.45      -2.191
  J16                  JUNCTION     1.679    1.679     0  04:35        4.86        4.83      -0.636
  J17                  JUNCTION     0.000    0.132     0  04:55           0       0.786       0.711
  J18                  JUNCTION     0.000    0.202     0  05:14           0        1.25      -0.953
  J19                  JUNCTION     0.000    0.271     0  04:34           0        5.01       0.216
  J2                   JUNCTION     0.000    0.039     0  04:43           0       0.729       0.752
  J3                   JUNCTION     0.000    0.197     0  04:10           0         2.6       1.531
  J4                   JUNCTION     0.000    0.085     0  03:50           0       0.582       0.127
  J5                   JUNCTION     0.279    0.353     0  03:55       0.763        1.35      -0.126
  J6                   JUNCTION     0.000    0.072     0  05:00           0       0.621      -0.060
  J7                   JUNCTION     0.000    0.127     0  04:20           0       0.665      -0.401
  J8                   JUNCTION     1.389    1.516     0  04:05        4.28        4.96      -0.351
  J9                   JUNCTION     0.000    0.175     0  04:08           0        2.15      -1.130
  Out_to_WWTP          OUTFALL      0.000    0.271     0  04:35           0           5       0.000
  T1                   STORAGE      0.000    2.001     0  04:36           0        9.67       5.715
  T2                   STORAGE      0.000    1.403     0  03:55           0        2.63      53.692
  T3                   STORAGE      0.000    0.332     0  04:11           0        4.09      45.080
  T4                   STORAGE      0.000    0.347     0  03:56           0        1.35      32.098
  T5                   STORAGE      0.000    0.772     0  04:35           0        2.55      20.242
  T6                   STORAGE      0.000    1.507     0  04:05           0        4.98      18.199
  
  
  **********************
  Node Surcharge Summary
  **********************
  
  Surcharging occurs when water rises above the top of the highest conduit.
  ---------------------------------------------------------------------
                                               Max. Height   Min. Depth
                                   Hours       Above Crown    Below Rim
  Node                 Type      Surcharged         Meters       Meters
  ---------------------------------------------------------------------
  CSO10                JUNCTION        0.86          0.560        0.000
  CSO7                 JUNCTION        0.64          0.945        0.000
  CSO9                 JUNCTION        0.67          1.682        0.000
  J4                   JUNCTION        0.61          0.572        1.128
  
  
  *********************
  Node Flooding Summary
  *********************
  
  Flooding refers to all water that overflows a node, whether it ponds or not.
  --------------------------------------------------------------------------
                                                             Total   Maximum
                                 Maximum   Time of Max       Flood    Ponded
                        Hours       Rate    Occurrence      Volume     Depth
  Node                 Flooded       CMS   days hr:min    10^6 ltr    Meters
  --------------------------------------------------------------------------
  CSO10                   0.80     0.326      0  04:35       0.423     0.000
  CSO7                    0.55     0.123      0  03:55       0.117     0.000
  CSO9                    0.51     0.236      0  03:55       0.254     0.000
  T1                      1.51     1.730      0  04:36       3.664     0.000
  T5                      1.38     0.522      0  04:55       0.943     0.000
  T6                      2.28     1.215      0  04:08       1.458     0.000
  
  
  **********************
  Storage Volume Summary
  **********************
  
  --------------------------------------------------------------------------------------------------
                         Average     Avg  Evap Exfil       Maximum     Max    Time of Max    Maximum
                          Volume    Pcnt  Pcnt  Pcnt        Volume    Pcnt     Occurrence    Outflow
  Storage Unit           1000 m3    Full  Loss  Loss       1000 m3    Full    days hr:min        CMS
  --------------------------------------------------------------------------------------------------
  T1                       0.374      53     0     0         0.700     100       0  04:34      0.271
  T2                       0.512      51     0     0         0.924      92       0  07:33      0.132
  T3                       0.966      37     0     0         1.572      60       0  06:37      0.115
  T4                       0.228      46     0     0         0.431      86       0  06:08      0.072
  T5                       0.262      52     0     0         0.500     100       0  04:42      0.039
  T6                       0.341      57     0     0         0.600     100       0  04:08      0.175
  
  
  ***********************
  Outfall Loading Summary
  ***********************
  
  -----------------------------------------------------------
                         Flow       Avg       Max       Total
                         Freq      Flow      Flow      Volume
  Outfall Node           Pcnt       CMS       CMS    10^6 ltr
  -----------------------------------------------------------
  Out_to_WWTP           99.18     0.180     0.271       5.003
  -----------------------------------------------------------
  System                99.18     0.180     0.271       5.003
  
  
  ********************
  Link Flow Summary
  ********************
  
  -----------------------------------------------------------------------------
                                 Maximum  Time of Max   Maximum    Max/    Max/
                                  |Flow|   Occurrence   |Veloc|    Full    Full
  Link                 Type          CMS  days hr:min     m/sec    Flow   Depth
  -----------------------------------------------------------------------------
  C1                   CONDUIT     0.039     0  06:05      1.10    0.01    0.10
  C10                  CONDUIT     1.507     0  04:05      1.87    0.16    0.63
  C11                  CONDUIT     0.182     0  04:11      1.71    0.01    0.15
  C12                  CONDUIT     0.175     0  04:54      1.47    0.01    0.09
  C13                  CONDUIT     0.332     0  04:11      2.01    0.02    0.54
  C14                  CONDUIT     0.271     0  04:35      2.08    0.02    0.09
  C15                  CONDUIT     0.121     0  01:20      2.11    0.38    0.39
  C16                  CONDUIT     0.117     0  01:22      1.13    0.01    0.07
  C17                  CONDUIT     0.209     0  01:22      1.83    0.01    0.08
  C18                  CONDUIT     1.403     0  03:55      3.12    0.05    0.58
  C19                  CONDUIT     0.132     0  05:15      1.25    0.05    0.31
  C2                   CONDUIT     0.071     0  05:00      1.85    0.08    0.20
  C20                  CONDUIT     1.667     0  04:35      4.08    0.05    0.20
  C21                  CONDUIT     0.202     0  05:14      1.86    1.16    0.69
  C22                  CONDUIT     0.202     0  05:15      1.45    0.09    0.40
  C23                  CONDUIT     2.001     0  04:36      1.62    0.22    0.66
  C3                   CONDUIT     0.115     0  04:10      1.94    0.04    0.14
  C4                   CONDUIT     0.772     0  04:35      3.04    0.19    0.65
  C5                   CONDUIT     0.085     0  03:50      1.67    1.45    1.00
  C6                   CONDUIT     0.073     0  03:55      1.29    1.17    0.83
  C7                   CONDUIT     0.347     0  03:56      1.62    0.09    0.60
  C8                   CONDUIT     0.127     0  04:20      1.86    1.60    0.86
  C9                   CONDUIT     0.127     0  04:20      1.22    0.43    0.63
  V1                   ORIFICE     0.271     0  04:34                      1.00
  V2                   ORIFICE     0.132     0  04:55                      1.00
  V3                   ORIFICE     0.115     0  04:10                      1.00
  V4                   ORIFICE     0.072     0  05:00                      1.00
  V5                   ORIFICE     0.039     0  04:43                      1.00
  V6                   ORIFICE     0.175     0  04:08                      1.00
  
  
  ***************************
  Flow Classification Summary
  ***************************
  
  -------------------------------------------------------------------------------------
                      Adjusted    ---------- Fraction of Time in Flow Class ---------- 
                       /Actual         Up    Down  Sub   Sup   Up    Down  Norm  Inlet 
  Conduit               Length    Dry  Dry   Dry   Crit  Crit  Crit  Crit  Ltd   Ctrl  
  -------------------------------------------------------------------------------------
  C1                      1.00   0.00  0.00  0.00  0.24  0.76  0.00  0.00  0.95  0.00
  C10                     1.00   0.00  0.00  0.00  0.96  0.04  0.00  0.00  0.98  0.00
  C11                     1.00   0.00  0.00  0.00  0.40  0.60  0.00  0.00  1.00  0.00
  C12                     1.00   0.00  0.00  0.00  0.33  0.67  0.00  0.00  0.83  0.00
  C13                     1.00   0.00  0.00  0.00  0.92  0.08  0.00  0.00  0.93  0.00
  C14                     1.00   0.01  0.00  0.00  0.01  0.98  0.00  0.00  0.38  0.00
  C15                     1.00   0.00  0.00  0.00  0.00  1.00  0.00  0.00  0.04  0.00
  C16                     1.00   0.00  0.00  0.00  0.33  0.67  0.00  0.00  0.38  0.00
  C17                     1.00   0.00  0.00  0.00  0.49  0.51  0.00  0.00  0.97  0.00
  C18                     1.00   0.00  0.00  0.00  0.95  0.05  0.00  0.00  0.98  0.00
  C19                     1.00   0.00  0.00  0.00  0.92  0.08  0.00  0.00  1.00  0.00
  C2                      1.00   0.00  0.00  0.00  0.18  0.82  0.00  0.00  0.97  0.00
  C20                     1.00   0.00  0.00  0.00  0.44  0.56  0.00  0.00  0.98  0.00
  C21                     1.00   0.00  0.00  0.00  0.00  1.00  0.00  0.00  0.00  0.00
  C22                     1.00   0.00  0.00  0.00  0.92  0.08  0.00  0.00  1.00  0.00
  C23                     1.00   0.00  0.00  0.00  0.92  0.08  0.00  0.00  0.95  0.00
  C3                      1.00   0.00  0.00  0.00  0.03  0.96  0.00  0.00  0.81  0.00
  C4                      1.00   0.00  0.00  0.00  0.97  0.03  0.00  0.00  0.98  0.00
  C5                      1.00   0.00  0.00  0.00  0.94  0.06  0.00  0.00  0.90  0.00
  C6                      1.00   0.00  0.00  0.00  0.13  0.87  0.00  0.00  0.00  0.00
  C7                      1.00   0.00  0.00  0.00  0.96  0.04  0.00  0.00  0.97  0.00
  C8                      1.00   0.00  0.00  0.00  0.12  0.88  0.00  0.00  0.00  0.00
  C9                      1.00   0.00  0.00  0.00  1.00  0.00  0.00  0.00  1.00  0.00
  
  
  *************************
  Conduit Surcharge Summary
  *************************
  
  ----------------------------------------------------------------------------
                                                           Hours        Hours 
                         --------- Hours Full --------   Above Full   Capacity
  Conduit                Both Ends  Upstream  Dnstream   Normal Flow   Limited
  ----------------------------------------------------------------------------
  C10                         0.01      0.01      3.99      0.01         0.01
  C13                         0.01      0.01      3.62      0.01         0.01
  C18                         0.01      0.01      3.98      0.01         0.01
  C21                         0.01      0.86      0.01      0.84         0.01
  C23                         0.01      0.01      4.13      0.01         0.01
  C4                          0.01      0.01      4.33      0.01         0.01
  C5                          0.60      0.65      0.70      0.64         0.58
  C6                          0.01      0.61      0.01      0.53         0.01
  C7                          0.01      0.01      4.05      0.01         0.01
  C8                          0.01      0.67      0.01      0.69         0.01
  

  Analysis begun on:  Sun Jul 17 19:47:46 2022
  Analysis ended on:  Sun Jul 17 19:47:48 2022
  Total elapsed time: 00:00:02