
  EPA STORM WATER MANAGEMENT MODEL - VERSION 5.1 (Build 5.3.0.dev0)
  --------------------------------------------------------------

  
  *********************************************************
  NOTE: The summary statistics displayed in this report are
  based on results found at every computational time step,  
  not just on results from each reporting time step.
  *********************************************************
  
  ****************
  Analysis Options
  ****************
  Flow Units ............... CMS
  Process Models:
    Rainfall/Runoff ........ YES
    RDII ................... NO
    Snowmelt ............... NO
    Groundwater ............ NO
    Flow Routing ........... YES
    Ponding Allowed ........ NO
    Water Quality .......... NO
  Infiltration Method ...... HORTON
  Flow Routing Method ...... DYNWAVE
  Surcharge Method ......... EXTRAN
  Starting Date ............ 01/07/2005 05:55:00
  Ending Date .............. 01/07/2005 13:10:00
  Antecedent Dry Days ...... 0.0
  Report Time Step ......... 00:05:00
  Wet Time Step ............ 00:05:00
  Dry Time Step ............ 01:00:00
  Routing Time Step ........ 30.00 sec
  Variable Time Step ....... YES
  Maximum Trials ........... 8
  Number of Threads ........ 1
  Head Tolerance ........... 0.001500 m
  
  
  **************************        Volume         Depth
  Runoff Quantity Continuity     hectare-m            mm
  **************************     ---------       -------
  Total Precipitation ......         1.369         7.595
  Evaporation Loss .........         0.000         0.000
  Infiltration Loss ........         0.000         0.000
  Surface Runoff ...........         1.339         7.430
  Final Storage ............         0.032         0.179
  Continuity Error (%) .....        -0.179
  
  
  **************************        Volume        Volume
  Flow Routing Continuity        hectare-m      10^6 ltr
  **************************     ---------     ---------
  Dry Weather Inflow .......         0.350         3.505
  Wet Weather Inflow .......         1.338        13.381
  Groundwater Inflow .......         0.000         0.000
  RDII Inflow ..............         0.000         0.000
  External Inflow ..........         0.000         0.000
  External Outflow .........         0.585         5.847
  Flooding Loss ............         0.143         1.429
  Evaporation Loss .........         0.000         0.000
  Exfiltration Loss ........         0.000         0.000
  Initial Stored Volume ....         0.000         0.000
  Final Stored Volume ......         0.721         7.214
  Continuity Error (%) .....        14.191
  
  
  *************************
  Highest Continuity Errors
  *************************
  Node T5 (25.71%)
  Node T3 (23.48%)
  Node T2 (22.53%)
  Node T6 (20.07%)
  Node T4 (17.33%)
  
  
  ***************************
  Time-Step Critical Elements
  ***************************
  Link C15 (67.23%)
  
  
  ********************************
  Highest Flow Instability Indexes
  ********************************
  Link V3 (9)
  Link C11 (8)
  Link C3 (8)
  Link C13 (7)
  Link V6 (7)
  
  
  *************************
  Routing Time Step Summary
  *************************
  Minimum Time Step           :     0.67 sec
  Average Time Step           :    24.28 sec
  Maximum Time Step           :    30.00 sec
  Percent in Steady State     :     6.78
  Average Iterations per Step :     2.10
  Percent Not Converging      :     0.00
  
  
  ***************************
  Subcatchment Runoff Summary
  ***************************
  
  ------------------------------------------------------------------------------------------------------------------------------
                            Total      Total      Total      Total     Imperv       Perv      Total       Total     Peak  Runoff
                           Precip      Runon       Evap      Infil     Runoff     Runoff     Runoff      Runoff   Runoff   Coeff
  Subcatchment                 mm         mm         mm         mm         mm         mm         mm    10^6 ltr      CMS
  ------------------------------------------------------------------------------------------------------------------------------
  SC01                       6.88       0.00       0.00       0.00       6.79       0.00       6.79        2.24     0.23   0.987
  SC010                      6.88       0.00       0.00       0.00       6.75       0.00       6.75        0.79     0.07   0.981
  SC02                       9.81       0.00       0.00       0.00       9.71       0.00       9.71        2.21     0.36   0.990
  SC03                       7.92       0.00       0.00       0.00       7.84       0.00       7.84        1.41     0.14   0.990
  SC04                       9.81       0.00       0.00       0.00       9.55       0.00       9.55        0.66     0.06   0.974
  SC05                       6.88       0.00       0.00       0.00       6.78       0.00       6.78        1.06     0.10   0.985
  SC06                       6.38       0.00       0.00       0.00       6.05       0.00       6.05        1.97     0.16   0.948
  SC07                       9.81       0.00       0.00       0.00       9.56       0.00       9.56        0.45     0.04   0.974
  SC08                       7.92       0.00       0.00       0.00       7.75       0.00       7.75        2.17     0.19   0.978
  SC09                       6.38       0.00       0.00       0.00       6.19       0.00       6.19        0.43     0.04   0.970
  
  
  ******************
  Node Depth Summary
  ******************
  
  ---------------------------------------------------------------------------------
                                 Average  Maximum  Maximum  Time of Max    Reported
                                   Depth    Depth      HGL   Occurrence   Max Depth
  Node                 Type       Meters   Meters   Meters  days hr:min      Meters
  ---------------------------------------------------------------------------------
  CSO10                JUNCTION     0.15     0.21    30.21     0  00:45        0.21
  CSO7                 JUNCTION     0.13     0.18    34.18     0  02:10        0.18
  CSO8                 JUNCTION     0.18     0.28    32.28     0  02:55        0.28
  CSO9                 JUNCTION     0.12     0.17    40.17     0  03:00        0.17
  J1                   JUNCTION     0.08     0.12    34.12     0  00:40        0.12
  J10                  JUNCTION     0.12     0.18    29.18     0  02:57        0.18
  J11                  JUNCTION     0.13     0.19    31.19     0  02:57        0.19
  J12                  JUNCTION     0.20     0.40    26.40     0  07:10        0.40
  J13                  JUNCTION     0.09     0.16    29.16     0  00:41        0.16
  J14                  JUNCTION     0.11     0.19    20.19     0  06:52        0.18
  J15                  JUNCTION     0.19     0.24    15.24     0  03:08        0.24
  J16                  JUNCTION     0.08     0.12    30.12     0  00:36        0.12
  J17                  JUNCTION     0.08     0.14    20.14     0  04:46        0.14
  J18                  JUNCTION     0.07     0.10    29.10     0  00:46        0.10
  J19                  JUNCTION     0.15     0.17     8.17     0  02:47        0.17
  J2                   JUNCTION     0.07     0.08    25.08     0  04:47        0.08
  J3                   JUNCTION     0.11     0.17    18.17     0  06:30        0.17
  J4                   JUNCTION     0.15     0.22    33.22     0  02:13        0.21
  J5                   JUNCTION     0.08     0.11    32.11     0  02:11        0.11
  J6                   JUNCTION     0.07     0.12    25.12     0  04:30        0.12
  J7                   JUNCTION     0.09     0.13    39.13     0  03:03        0.13
  J8                   JUNCTION     0.12     0.16    36.16     0  03:02        0.16
  J9                   JUNCTION     0.10     0.16    29.16     0  04:20        0.16
  Out_to_WWTP          OUTFALL      0.15     0.17     6.17     0  06:52        0.17
  T1                   STORAGE      3.84     5.00    15.00     0  02:46        5.00
  T2                   STORAGE      2.91     4.33    25.33     0  04:30        4.33
  T3                   STORAGE      2.68     4.39    26.39     0  07:14        4.39
  T4                   STORAGE      3.12     4.79    31.79     0  04:25        4.79
  T5                   STORAGE      2.96     4.32    31.32     0  04:45        4.32
  T6                   STORAGE      3.20     5.00    36.00     0  03:39        5.00
  
  
  *******************
  Node Inflow Summary
  *******************
  
  -------------------------------------------------------------------------------------------------
                                  Maximum  Maximum                  Lateral       Total        Flow
                                  Lateral    Total  Time of Max      Inflow      Inflow     Balance
                                   Inflow   Inflow   Occurrence      Volume      Volume       Error
  Node                 Type           CMS      CMS  days hr:min    10^6 ltr    10^6 ltr     Percent
  -------------------------------------------------------------------------------------------------
  CSO10                JUNCTION     0.072    0.072     0  00:45       0.915       0.917       0.042
  CSO7                 JUNCTION     0.049    0.049     0  02:10        0.71       0.712       0.071
  CSO8                 JUNCTION     0.204    0.204     0  02:55        2.44        2.44       0.024
  CSO9                 JUNCTION     0.041    0.041     0  03:00         0.6       0.601       0.087
  J1                   JUNCTION     0.118    0.118     0  00:40        1.55        1.56      -0.006
  J10                  JUNCTION     0.154    0.344     0  02:55        1.75        4.19       0.104
  J11                  JUNCTION     0.000    0.204     0  02:55           0        2.44       0.178
  J12                  JUNCTION     0.000    0.447     0  03:05           0        6.11       4.885
  J13                  JUNCTION     0.367    0.367     0  00:40        2.62        2.63      -0.297
  J14                  JUNCTION     0.000    0.178     0  06:55           0        2.16       0.347
  J15                  JUNCTION     0.000    0.497     0  03:00           0        8.51       1.695
  J16                  JUNCTION     0.247    0.247     0  00:35        2.73        2.73      -0.021
  J17                  JUNCTION     0.000    0.130     0  04:30           0        1.27       4.781
  J18                  JUNCTION     0.000    0.072     0  00:45           0       0.917      -0.045
  J19                  JUNCTION     0.000    0.271     0  02:46           0        5.86       0.213
  J2                   JUNCTION     0.000    0.036     0  04:45           0       0.756       0.681
  J3                   JUNCTION     0.000    0.288     0  04:47           0        3.69       1.383
  J4                   JUNCTION     0.000    0.049     0  02:10           0       0.711       0.509
  J5                   JUNCTION     0.063    0.111     0  02:10       0.772        1.48       0.016
  J6                   JUNCTION     0.000    0.078     0  04:25           0       0.821       3.552
  J7                   JUNCTION     0.000    0.041     0  03:00           0       0.601       0.474
  J8                   JUNCTION     0.188    0.228     0  03:00         2.8         3.4       0.134
  J9                   JUNCTION     0.000    0.175     0  03:50           0        1.85      -2.860
  Out_to_WWTP          OUTFALL      0.000    0.271     0  02:47           0        5.85       0.000
  T1                   STORAGE      0.000    0.488     0  03:09           0        8.37      10.419
  T2                   STORAGE      0.000    0.363     0  00:41           0        2.63      29.086
  T3                   STORAGE      0.000    0.425     0  03:06           0        5.83      30.681
  T4                   STORAGE      0.000    0.111     0  02:11           0        1.48      20.970
  T5                   STORAGE      0.000    0.118     0  00:40           0        1.56      34.612
  T6                   STORAGE      0.000    0.227     0  03:02           0         3.4      25.103
  
  
  **********************
  Node Surcharge Summary
  **********************
  
  No nodes were surcharged.
  
  
  *********************
  Node Flooding Summary
  *********************
  
  Flooding refers to all water that overflows a node, whether it ponds or not.
  --------------------------------------------------------------------------
                                                             Total   Maximum
                                 Maximum   Time of Max       Flood    Ponded
                        Hours       Rate    Occurrence      Volume     Depth
  Node                 Flooded       CMS   days hr:min    10^6 ltr    Meters
  --------------------------------------------------------------------------
  T1                      2.56     0.217      0  03:09       1.041     0.000
  T6                      1.13     0.175      0  03:39       0.387     0.000
  
  
  **********************
  Storage Volume Summary
  **********************
  
  --------------------------------------------------------------------------------------------------
                         Average     Avg  Evap Exfil       Maximum     Max    Time of Max    Maximum
                          Volume    Pcnt  Pcnt  Pcnt        Volume    Pcnt     Occurrence    Outflow
  Storage Unit           1000 m3    Full  Loss  Loss       1000 m3    Full    days hr:min        CMS
  --------------------------------------------------------------------------------------------------
  T1                       0.538      77     0     0         0.700     100       0  02:46      0.271
  T2                       0.582      58     0     0         0.865      87       0  04:30      0.130
  T3                       1.391      54     0     0         2.285      88       0  07:14      0.208
  T4                       0.312      62     0     0         0.479      96       0  04:25      0.078
  T5                       0.296      59     0     0         0.432      86       0  04:45      0.036
  T6                       0.384      64     0     0         0.600     100       0  03:39      0.175
  
  
  ***********************
  Outfall Loading Summary
  ***********************
  
  -----------------------------------------------------------
                         Flow       Avg       Max       Total
                         Freq      Flow      Flow      Volume
  Outfall Node           Pcnt       CMS       CMS    10^6 ltr
  -----------------------------------------------------------
  Out_to_WWTP           98.87     0.226     0.271       5.847
  -----------------------------------------------------------
  System                98.87     0.226     0.271       5.847
  
  
  ********************
  Link Flow Summary
  ********************
  
  -----------------------------------------------------------------------------
                                 Maximum  Time of Max   Maximum    Max/    Max/
                                  |Flow|   Occurrence   |Veloc|    Full    Full
  Link                 Type          CMS  days hr:min     m/sec    Flow   Depth
  -----------------------------------------------------------------------------
  C1                   CONDUIT     0.036     0  04:56      1.03    0.01    0.12
  C10                  CONDUIT     0.227     0  03:02      1.52    0.02    0.55
  C11                  CONDUIT     0.285     0  06:30      2.00    0.01    0.10
  C12                  CONDUIT     0.173     0  04:20      1.36    0.01    0.13
  C13                  CONDUIT     0.425     0  03:06      1.82    0.02    0.60
  C14                  CONDUIT     0.271     0  02:47      2.08    0.02    0.09
  C15                  CONDUIT     0.204     0  02:55      2.44    0.65    0.52
  C16                  CONDUIT     0.200     0  02:58      1.34    0.02    0.09
  C17                  CONDUIT     0.342     0  02:58      2.20    0.02    0.11
  C18                  CONDUIT     0.363     0  00:41      1.70    0.01    0.53
  C19                  CONDUIT     0.129     0  04:46      1.57    0.04    0.18
  C2                   CONDUIT     0.077     0  04:30      1.81    0.09    0.24
  C20                  CONDUIT     0.247     0  00:37      4.75    0.01    0.09
  C21                  CONDUIT     0.072     0  00:45      1.51    0.41    0.36
  C22                  CONDUIT     0.072     0  00:46      1.17    0.03    0.21
  C23                  CONDUIT     0.488     0  03:09      1.96    0.05    0.58
  C3                   CONDUIT     0.180     0  06:53      2.22    0.07    0.17
  C4                   CONDUIT     0.118     0  00:40      5.92    0.03    0.56
  C5                   CONDUIT     0.049     0  02:10      1.31    0.84    0.77
  C6                   CONDUIT     0.049     0  02:13      1.23    0.78    0.55
  C7                   CONDUIT     0.111     0  02:11      1.38    0.03    0.56
  C8                   CONDUIT     0.041     0  03:00      1.75    0.52    0.46
  C9                   CONDUIT     0.041     0  03:03      0.90    0.14    0.28
  V1                   ORIFICE     0.271     0  02:46                      1.00
  V2                   ORIFICE     0.130     0  04:30                      1.00
  V3                   ORIFICE     0.178     0  06:55                      1.00
  V4                   ORIFICE     0.078     0  04:25                      1.00
  V5                   ORIFICE     0.036     0  04:45                      1.00
  V6                   ORIFICE     0.175     0  03:50                      1.00
  
  
  ***************************
  Flow Classification Summary
  ***************************
  
  -------------------------------------------------------------------------------------
                      Adjusted    ---------- Fraction of Time in Flow Class ---------- 
                       /Actual         Up    Down  Sub   Sup   Up    Down  Norm  Inlet 
  Conduit               Length    Dry  Dry   Dry   Crit  Crit  Crit  Crit  Ltd   Ctrl  
  -------------------------------------------------------------------------------------
  C1                      1.00   0.00  0.00  0.00  0.40  0.60  0.00  0.00  0.94  0.00
  C10                     1.00   0.00  0.00  0.00  0.95  0.05  0.00  0.00  0.97  0.00
  C11                     1.00   0.00  0.00  0.00  0.39  0.61  0.00  0.00  1.00  0.00
  C12                     1.00   0.00  0.00  0.00  0.93  0.07  0.00  0.00  0.99  0.00
  C13                     1.00   0.00  0.00  0.00  0.89  0.11  0.00  0.00  0.56  0.00
  C14                     1.00   0.01  0.00  0.00  0.01  0.99  0.00  0.00  0.21  0.00
  C15                     1.00   0.01  0.00  0.00  0.00  0.99  0.00  0.00  0.00  0.00
  C16                     1.00   0.00  0.01  0.00  0.20  0.79  0.00  0.00  0.23  0.00
  C17                     1.00   0.00  0.00  0.00  0.24  0.76  0.00  0.00  0.95  0.00
  C18                     1.00   0.00  0.00  0.00  0.92  0.08  0.00  0.00  0.97  0.00
  C19                     1.00   0.00  0.00  0.00  0.84  0.16  0.00  0.00  1.00  0.00
  C2                      1.00   0.00  0.00  0.00  0.44  0.56  0.00  0.00  0.97  0.00
  C20                     1.00   0.00  0.00  0.00  0.36  0.64  0.00  0.00  0.98  0.00
  C21                     1.00   0.00  0.00  0.00  0.00  1.00  0.00  0.00  0.00  0.00
  C22                     1.00   0.00  0.00  0.00  0.87  0.13  0.00  0.00  1.00  0.00
  C23                     1.00   0.00  0.00  0.00  0.92  0.08  0.00  0.00  0.93  0.00
  C3                      1.00   0.00  0.01  0.00  0.05  0.95  0.00  0.00  0.48  0.00
  C4                      1.00   0.00  0.00  0.00  0.94  0.06  0.00  0.00  0.98  0.00
  C5                      1.00   0.00  0.00  0.00  0.92  0.08  0.00  0.00  0.96  0.00
  C6                      1.00   0.00  0.00  0.00  0.01  0.99  0.00  0.00  0.00  0.00
  C7                      1.00   0.00  0.00  0.00  0.92  0.08  0.00  0.00  0.96  0.00
  C8                      1.00   0.00  0.00  0.00  0.00  1.00  0.00  0.00  0.00  0.00
  C9                      1.00   0.00  0.00  0.00  1.00  0.00  0.00  0.00  1.00  0.00
  
  
  *************************
  Conduit Surcharge Summary
  *************************
  
  ----------------------------------------------------------------------------
                                                           Hours        Hours 
                         --------- Hours Full --------   Above Full   Capacity
  Conduit                Both Ends  Upstream  Dnstream   Normal Flow   Limited
  ----------------------------------------------------------------------------
  C10                         0.01      0.01      5.55      0.01         0.01
  C13                         0.01      0.01      4.86      0.01         0.01
  C18                         0.01      0.01      5.35      0.01         0.01
  C23                         0.01      0.01      6.15      0.01         0.01
  C4                          0.01      0.01      6.21      0.01         0.01
  C7                          0.01      0.01      6.09      0.01         0.01
  

  Analysis begun on:  Sun Aug 21 16:49:52 2022
  Analysis ended on:  Sun Aug 21 16:49:52 2022
  Total elapsed time: < 1 sec