
  EPA STORM WATER MANAGEMENT MODEL - VERSION 5.1 (Build 5.3.0.dev0)
  --------------------------------------------------------------

  
  *********************************************************
  NOTE: The summary statistics displayed in this report are
  based on results found at every computational time step,  
  not just on results from each reporting time step.
  *********************************************************
  
  ****************
  Analysis Options
  ****************
  Flow Units ............... CMS
  Process Models:
    Rainfall/Runoff ........ YES
    RDII ................... NO
    Snowmelt ............... NO
    Groundwater ............ NO
    Flow Routing ........... YES
    Ponding Allowed ........ NO
    Water Quality .......... NO
  Infiltration Method ...... HORTON
  Flow Routing Method ...... DYNWAVE
  Surcharge Method ......... EXTRAN
  Starting Date ............ 05/27/2002 03:55:00
  Ending Date .............. 05/28/2002 06:55:00
  Antecedent Dry Days ...... 0.0
  Report Time Step ......... 00:05:00
  Wet Time Step ............ 00:05:00
  Dry Time Step ............ 01:00:00
  Routing Time Step ........ 30.00 sec
  Variable Time Step ....... YES
  Maximum Trials ........... 8
  Number of Threads ........ 1
  Head Tolerance ........... 0.001500 m
  
  
  **************************        Volume         Depth
  Runoff Quantity Continuity     hectare-m            mm
  **************************     ---------       -------
  Total Precipitation ......         1.253         6.954
  Evaporation Loss .........         0.000         0.000
  Infiltration Loss ........         0.000         0.000
  Surface Runoff ...........         1.218         6.759
  Final Storage ............         0.036         0.202
  Continuity Error (%) .....        -0.101
  
  
  **************************        Volume        Volume
  Flow Routing Continuity        hectare-m      10^6 ltr
  **************************     ---------     ---------
  Dry Weather Inflow .......         0.838         8.383
  Wet Weather Inflow .......         1.218        12.176
  Groundwater Inflow .......         0.000         0.000
  RDII Inflow ..............         0.000         0.000
  External Inflow ..........         0.000         0.000
  External Outflow .........         1.664        16.635
  Flooding Loss ............         0.000         0.000
  Evaporation Loss .........         0.000         0.000
  Exfiltration Loss ........         0.000         0.000
  Initial Stored Volume ....         0.000         0.000
  Final Stored Volume ......         0.375         3.755
  Continuity Error (%) .....         0.824
  
  
  *************************
  Highest Continuity Errors
  *************************
  Node T3 (8.87%)
  Node T2 (8.82%)
  Node T6 (8.52%)
  Node J9 (-7.02%)
  Node T5 (6.18%)
  
  
  ***************************
  Time-Step Critical Elements
  ***************************
  Link C15 (7.72%)
  
  
  ********************************
  Highest Flow Instability Indexes
  ********************************
  Link C11 (9)
  Link C23 (8)
  Link C12 (7)
  Link C19 (7)
  Link C2 (7)
  
  
  *************************
  Routing Time Step Summary
  *************************
  Minimum Time Step           :     0.05 sec
  Average Time Step           :    29.51 sec
  Maximum Time Step           :    30.00 sec
  Percent in Steady State     :     6.36
  Average Iterations per Step :     2.05
  Percent Not Converging      :     0.00
  
  
  ***************************
  Subcatchment Runoff Summary
  ***************************
  
  ------------------------------------------------------------------------------------------------------------------------------
                            Total      Total      Total      Total     Imperv       Perv      Total       Total     Peak  Runoff
                           Precip      Runon       Evap      Infil     Runoff     Runoff     Runoff      Runoff   Runoff   Coeff
  Subcatchment                 mm         mm         mm         mm         mm         mm         mm    10^6 ltr      CMS
  ------------------------------------------------------------------------------------------------------------------------------
  SC01                       7.60       0.00       0.00       0.00       7.46       0.00       7.46        2.46     0.11   0.982
  SC010                      7.60       0.00       0.00       0.00       7.41       0.00       7.41        0.87     0.04   0.975
  SC02                       8.35       0.00       0.00       0.00       8.21       0.00       8.21        1.87     0.09   0.984
  SC03                       5.95       0.00       0.00       0.00       5.87       0.00       5.87        1.06     0.12   0.986
  SC04                       8.35       0.00       0.00       0.00       8.05       0.00       8.05        0.56     0.02   0.964
  SC05                       7.60       0.00       0.00       0.00       7.45       0.00       7.45        1.16     0.05   0.980
  SC06                       5.92       0.00       0.00       0.00       5.56       0.00       5.56        1.81     0.08   0.939
  SC07                       8.35       0.00       0.00       0.00       8.05       0.00       8.05        0.38     0.01   0.964
  SC08                       5.95       0.00       0.00       0.00       5.78       0.00       5.78        1.62     0.15   0.971
  SC09                       5.92       0.00       0.00       0.00       5.71       0.00       5.71        0.39     0.02   0.964
  
  
  ******************
  Node Depth Summary
  ******************
  
  ---------------------------------------------------------------------------------
                                 Average  Maximum  Maximum  Time of Max    Reported
                                   Depth    Depth      HGL   Occurrence   Max Depth
  Node                 Type       Meters   Meters   Meters  days hr:min      Meters
  ---------------------------------------------------------------------------------
  CSO10                JUNCTION     0.08     0.16    30.16     0  07:16        0.16
  CSO7                 JUNCTION     0.07     0.12    34.12     0  09:56        0.12
  CSO8                 JUNCTION     0.07     0.23    32.23     0  23:35        0.22
  CSO9                 JUNCTION     0.07     0.13    40.13     0  23:36        0.13
  J1                   JUNCTION     0.05     0.09    34.09     0  07:16        0.09
  J10                  JUNCTION     0.06     0.16    29.16     0  23:38        0.16
  J11                  JUNCTION     0.06     0.16    31.16     0  23:39        0.16
  J12                  JUNCTION     0.10     0.18    26.18     0  23:42        0.17
  J13                  JUNCTION     0.05     0.09    29.09     0  23:50        0.08
  J14                  JUNCTION     0.11     0.16    20.16     0  15:03        0.16
  J15                  JUNCTION     0.14     0.19    15.19     0  13:46        0.19
  J16                  JUNCTION     0.05     0.09    30.09     0  07:16        0.09
  J17                  JUNCTION     0.06     0.12    20.12     0  10:43        0.12
  J18                  JUNCTION     0.04     0.08    29.08     0  07:18        0.08
  J19                  JUNCTION     0.13     0.16     8.16     0  14:27        0.16
  J2                   JUNCTION     0.06     0.07    25.07     0  13:19        0.07
  J3                   JUNCTION     0.10     0.14    18.14     0  15:30        0.14
  J4                   JUNCTION     0.09     0.14    33.14     0  09:59        0.14
  J5                   JUNCTION     0.05     0.08    32.08     0  09:58        0.08
  J6                   JUNCTION     0.05     0.10    25.10     0  10:32        0.10
  J7                   JUNCTION     0.06     0.10    39.10     0  23:43        0.10
  J8                   JUNCTION     0.07     0.12    36.12     1  00:34        0.12
  J9                   JUNCTION     0.08     0.14    29.14     0  13:18        0.14
  Out_to_WWTP          OUTFALL      0.13     0.16     6.16     0  14:28        0.16
  T1                   STORAGE      2.30     4.07    14.07     0  14:27        4.06
  T2                   STORAGE      1.02     1.94    22.94     0  10:35        1.94
  T3                   STORAGE      1.62     2.51    24.51     0  15:13        2.51
  T4                   STORAGE      1.01     2.33    29.33     0  10:25        2.33
  T5                   STORAGE      1.72     3.04    30.04     0  13:18        3.04
  T6                   STORAGE      1.30     2.69    33.69     0  11:00        2.69
  
  
  *******************
  Node Inflow Summary
  *******************
  
  -------------------------------------------------------------------------------------------------
                                  Maximum  Maximum                  Lateral       Total        Flow
                                  Lateral    Total  Time of Max      Inflow      Inflow     Balance
                                   Inflow   Inflow   Occurrence      Volume      Volume       Error
  Node                 Type           CMS      CMS  days hr:min    10^6 ltr    10^6 ltr     Percent
  -------------------------------------------------------------------------------------------------
  CSO10                JUNCTION     0.042    0.042     0  07:15        1.17        1.17      -0.273
  CSO7                 JUNCTION     0.025    0.025     0  09:55        1.01        1.01      -0.261
  CSO8                 JUNCTION     0.145    0.145     0  23:35         2.1         2.1      -0.096
  CSO9                 JUNCTION     0.025    0.025     0  23:35       0.817       0.818      -0.343
  J1                   JUNCTION     0.072    0.072     0  07:15        2.37        2.37      -0.391
  J10                  JUNCTION     0.125    0.257     0  23:36        1.89        3.99      -0.208
  J11                  JUNCTION     0.000    0.145     0  23:35           0         2.1      -0.009
  J12                  JUNCTION     0.000    0.286     0  23:40           0         8.4       0.827
  J13                  JUNCTION     0.092    0.092     0  23:50        2.88        2.89      -0.349
  J14                  JUNCTION     0.000    0.134     0  15:00           0        6.49       2.168
  J15                  JUNCTION     0.000    0.338     0  13:41           0        17.5       0.061
  J16                  JUNCTION     0.127    0.127     0  07:15        3.66        3.65      -0.401
  J17                  JUNCTION     0.000    0.087     0  10:35           0        2.44      -1.725
  J18                  JUNCTION     0.000    0.041     0  07:16           0        1.17       0.130
  J19                  JUNCTION     0.000    0.244     0  14:27           0        16.6       0.061
  J2                   JUNCTION     0.000    0.031     0  13:18           0         2.1       0.162
  J3                   JUNCTION     0.000    0.214     0  13:39           0        10.2      -0.655
  J4                   JUNCTION     0.000    0.025     0  09:56           0        1.01       0.084
  J5                   JUNCTION     0.024    0.049     0  09:56        0.83        1.85      -0.127
  J6                   JUNCTION     0.000    0.054     0  10:25           0        1.67      -2.190
  J7                   JUNCTION     0.000    0.025     0  23:36           0       0.821       0.140
  J8                   JUNCTION     0.098    0.120     1  00:30        3.84        4.67      -0.354
  J9                   JUNCTION     0.000    0.128     0  11:00           0        4.11      -6.562
  Out_to_WWTP          OUTFALL      0.000    0.244     0  14:28           0        16.6       0.000
  T1                   STORAGE      0.000    0.318     0  13:47           0        17.5       3.231
  T2                   STORAGE      0.000    0.092     0  23:50           0         2.9       9.671
  T3                   STORAGE      0.000    0.273     0  23:42           0        8.34       9.737
  T4                   STORAGE      0.000    0.049     0  09:58           0        1.85       5.311
  T5                   STORAGE      0.000    0.071     0  07:16           0        2.38       6.586
  T6                   STORAGE      0.000    0.120     1  00:34           0        4.68       9.313
  
  
  **********************
  Node Surcharge Summary
  **********************
  
  No nodes were surcharged.
  
  
  *********************
  Node Flooding Summary
  *********************
  
  No nodes were flooded.
  
  
  **********************
  Storage Volume Summary
  **********************
  
  --------------------------------------------------------------------------------------------------
                         Average     Avg  Evap Exfil       Maximum     Max    Time of Max    Maximum
                          Volume    Pcnt  Pcnt  Pcnt        Volume    Pcnt     Occurrence    Outflow
  Storage Unit           1000 m3    Full  Loss  Loss       1000 m3    Full    days hr:min        CMS
  --------------------------------------------------------------------------------------------------
  T1                       0.323      46     0     0         0.569      81       0  14:27      0.244
  T2                       0.204      20     0     0         0.388      39       0  10:35      0.087
  T3                       0.843      32     0     0         1.307      50       0  15:13      0.134
  T4                       0.101      20     0     0         0.233      47       0  10:25      0.054
  T5                       0.172      34     0     0         0.304      61       0  13:18      0.031
  T6                       0.155      26     0     0         0.323      54       0  11:00      0.128
  
  
  ***********************
  Outfall Loading Summary
  ***********************
  
  -----------------------------------------------------------
                         Flow       Avg       Max       Total
                         Freq      Flow      Flow      Volume
  Outfall Node           Pcnt       CMS       CMS    10^6 ltr
  -----------------------------------------------------------
  Out_to_WWTP           99.48     0.172     0.244      16.635
  -----------------------------------------------------------
  System                99.48     0.172     0.244      16.635
  
  
  ********************
  Link Flow Summary
  ********************
  
  -----------------------------------------------------------------------------
                                 Maximum  Time of Max   Maximum    Max/    Max/
                                  |Flow|   Occurrence   |Veloc|    Full    Full
  Link                 Type          CMS  days hr:min     m/sec    Flow   Depth
  -----------------------------------------------------------------------------
  C1                   CONDUIT     0.031     0  13:20      1.02    0.01    0.10
  C10                  CONDUIT     0.120     1  00:34      2.18    0.01    0.54
  C11                  CONDUIT     0.204     0  15:31      1.87    0.01    0.08
  C12                  CONDUIT     0.122     0  09:40      1.37    0.01    0.07
  C13                  CONDUIT     0.273     0  23:42      1.15    0.02    0.54
  C14                  CONDUIT     0.244     0  14:28      2.02    0.01    0.08
  C15                  CONDUIT     0.145     0  23:35      2.22    0.46    0.43
  C16                  CONDUIT     0.141     0  23:40      1.20    0.01    0.08
  C17                  CONDUIT     0.255     0  23:39      2.11    0.01    0.08
  C18                  CONDUIT     0.092     0  23:50      1.40    0.00    0.50
  C19                  CONDUIT     0.086     0  10:43      1.23    0.03    0.15
  C2                   CONDUIT     0.054     0  10:32      1.59    0.06    0.20
  C20                  CONDUIT     0.127     0  07:16      2.77    0.00    0.07
  C21                  CONDUIT     0.041     0  07:16      1.54    0.24    0.27
  C22                  CONDUIT     0.041     0  07:18      0.83    0.02    0.16
  C23                  CONDUIT     0.318     0  13:47      1.01    0.04    0.56
  C3                   CONDUIT     0.134     0  14:53      2.03    0.05    0.15
  C4                   CONDUIT     0.071     0  07:16      6.63    0.02    0.55
  C5                   CONDUIT     0.025     0  09:56      1.50    0.42    0.50
  C6                   CONDUIT     0.025     0  09:59      1.06    0.39    0.36
  C7                   CONDUIT     0.049     0  09:58      1.16    0.01    0.54
  C8                   CONDUIT     0.025     0  23:36      1.39    0.31    0.35
  C9                   CONDUIT     0.024     0  23:43      0.80    0.08    0.21
  V1                   ORIFICE     0.244     0  14:27                      1.00
  V2                   ORIFICE     0.087     0  10:35                      1.00
  V3                   ORIFICE     0.134     0  15:00                      1.00
  V4                   ORIFICE     0.054     0  10:25                      1.00
  V5                   ORIFICE     0.031     0  13:18                      1.00
  V6                   ORIFICE     0.128     0  11:00                      1.00
  
  
  ***************************
  Flow Classification Summary
  ***************************
  
  -------------------------------------------------------------------------------------
                      Adjusted    ---------- Fraction of Time in Flow Class ---------- 
                       /Actual         Up    Down  Sub   Sup   Up    Down  Norm  Inlet 
  Conduit               Length    Dry  Dry   Dry   Crit  Crit  Crit  Crit  Ltd   Ctrl  
  -------------------------------------------------------------------------------------
  C1                      1.00   0.00  0.00  0.00  0.50  0.50  0.00  0.00  0.98  0.00
  C10                     1.00   0.00  0.00  0.00  0.98  0.02  0.00  0.00  0.99  0.00
  C11                     1.00   0.00  0.00  0.00  0.07  0.93  0.00  0.00  1.00  0.00
  C12                     1.00   0.00  0.00  0.00  0.46  0.54  0.00  0.00  0.74  0.00
  C13                     1.00   0.00  0.00  0.00  0.93  0.07  0.00  0.00  0.96  0.00
  C14                     1.00   0.00  0.00  0.00  0.00  0.99  0.00  0.00  0.56  0.00
  C15                     1.00   0.04  0.00  0.00  0.00  0.96  0.00  0.00  0.00  0.00
  C16                     1.00   0.00  0.04  0.00  0.54  0.42  0.00  0.00  0.49  0.00
  C17                     1.00   0.00  0.00  0.00  0.39  0.61  0.00  0.00  0.98  0.00
  C18                     1.00   0.00  0.00  0.00  0.95  0.05  0.00  0.00  0.99  0.00
  C19                     1.00   0.00  0.00  0.00  0.83  0.17  0.00  0.00  1.00  0.00
  C2                      1.00   0.00  0.00  0.00  0.57  0.43  0.00  0.00  0.99  0.00
  C20                     1.00   0.00  0.00  0.00  0.68  0.32  0.00  0.00  0.99  0.00
  C21                     1.00   0.00  0.00  0.00  0.00  1.00  0.00  0.00  0.00  0.00
  C22                     1.00   0.00  0.00  0.00  1.00  0.00  0.00  0.00  1.00  0.00
  C23                     1.00   0.00  0.00  0.00  0.94  0.06  0.00  0.00  0.98  0.00
  C3                      1.00   0.00  0.00  0.00  0.03  0.97  0.00  0.00  0.44  0.00
  C4                      1.00   0.00  0.00  0.00  0.98  0.02  0.00  0.00  0.99  0.00
  C5                      1.00   0.00  0.00  0.00  0.92  0.08  0.00  0.00  0.99  0.00
  C6                      1.00   0.00  0.00  0.00  0.01  0.99  0.00  0.00  0.00  0.00
  C7                      1.00   0.00  0.00  0.00  0.97  0.03  0.00  0.00  0.99  0.00
  C8                      1.00   0.00  0.00  0.00  0.16  0.84  0.00  0.00  0.00  0.00
  C9                      1.00   0.00  0.00  0.00  1.00  0.00  0.00  0.00  1.00  0.00
  
  
  *************************
  Conduit Surcharge Summary
  *************************
  
  ----------------------------------------------------------------------------
                                                           Hours        Hours 
                         --------- Hours Full --------   Above Full   Capacity
  Conduit                Both Ends  Upstream  Dnstream   Normal Flow   Limited
  ----------------------------------------------------------------------------
  C10                         0.01      0.01     10.78      0.01         0.01
  C13                         0.01      0.01     12.58      0.01         0.01
  C23                         0.01      0.01     19.88      0.01         0.01
  C4                          0.01      0.01     18.79      0.01         0.01
  C7                          0.01      0.01     11.03      0.01         0.01
  

  Analysis begun on:  Sun Aug 21 16:49:55 2022
  Analysis ended on:  Sun Aug 21 16:49:58 2022
  Total elapsed time: 00:00:03