
  EPA STORM WATER MANAGEMENT MODEL - VERSION 5.1 (Build 5.3.0.dev0)
  --------------------------------------------------------------

  
  *********************************************************
  NOTE: The summary statistics displayed in this report are
  based on results found at every computational time step,  
  not just on results from each reporting time step.
  *********************************************************
  
  ****************
  Analysis Options
  ****************
  Flow Units ............... CMS
  Process Models:
    Rainfall/Runoff ........ YES
    RDII ................... NO
    Snowmelt ............... NO
    Groundwater ............ NO
    Flow Routing ........... YES
    Ponding Allowed ........ NO
    Water Quality .......... NO
  Infiltration Method ...... HORTON
  Flow Routing Method ...... DYNWAVE
  Surcharge Method ......... EXTRAN
  Starting Date ............ 12/01/2004 10:20:00
  Ending Date .............. 12/02/2004 01:30:00
  Antecedent Dry Days ...... 0.0
  Report Time Step ......... 00:05:00
  Wet Time Step ............ 00:05:00
  Dry Time Step ............ 01:00:00
  Routing Time Step ........ 30.00 sec
  Variable Time Step ....... YES
  Maximum Trials ........... 8
  Number of Threads ........ 1
  Head Tolerance ........... 0.001500 m
  
  
  **************************        Volume         Depth
  Runoff Quantity Continuity     hectare-m            mm
  **************************     ---------       -------
  Total Precipitation ......         1.486         8.245
  Evaporation Loss .........         0.000         0.000
  Infiltration Loss ........         0.000         0.000
  Surface Runoff ...........         1.458         8.093
  Final Storage ............         0.031         0.170
  Continuity Error (%) .....        -0.220
  
  
  **************************        Volume        Volume
  Flow Routing Continuity        hectare-m      10^6 ltr
  **************************     ---------     ---------
  Dry Weather Inflow .......         0.513         5.132
  Wet Weather Inflow .......         1.459        14.590
  Groundwater Inflow .......         0.000         0.000
  RDII Inflow ..............         0.000         0.000
  External Inflow ..........         0.000         0.000
  External Outflow .........         1.019        10.192
  Flooding Loss ............         0.166         1.657
  Evaporation Loss .........         0.000         0.000
  Exfiltration Loss ........         0.000         0.000
  Initial Stored Volume ....         0.000         0.000
  Final Stored Volume ......         0.620         6.198
  Continuity Error (%) .....         8.497
  
  
  *************************
  Highest Continuity Errors
  *************************
  Node T2 (21.37%)
  Node T5 (17.01%)
  Node T4 (12.76%)
  Node T3 (11.98%)
  Node T1 (5.93%)
  
  
  ***************************
  Time-Step Critical Elements
  ***************************
  Link C15 (33.00%)
  
  
  ********************************
  Highest Flow Instability Indexes
  ********************************
  Link V3 (10)
  Link C13 (9)
  Link C3 (8)
  Link C11 (8)
  Link C12 (8)
  
  
  *************************
  Routing Time Step Summary
  *************************
  Minimum Time Step           :     0.12 sec
  Average Time Step           :    27.32 sec
  Maximum Time Step           :    30.00 sec
  Percent in Steady State     :     1.54
  Average Iterations per Step :     2.20
  Percent Not Converging      :     1.27
  
  
  ***************************
  Subcatchment Runoff Summary
  ***************************
  
  ------------------------------------------------------------------------------------------------------------------------------
                            Total      Total      Total      Total     Imperv       Perv      Total       Total     Peak  Runoff
                           Precip      Runon       Evap      Infil     Runoff     Runoff     Runoff      Runoff   Runoff   Coeff
  Subcatchment                 mm         mm         mm         mm         mm         mm         mm    10^6 ltr      CMS
  ------------------------------------------------------------------------------------------------------------------------------
  SC01                       7.84       0.00       0.00       0.00       7.73       0.00       7.73        2.55     0.28   0.987
  SC010                      7.84       0.00       0.00       0.00       7.69       0.00       7.69        0.90     0.09   0.980
  SC02                      11.65       0.00       0.00       0.00      11.56       0.00      11.56        2.63     0.68   0.992
  SC03                       9.10       0.00       0.00       0.00       9.04       0.00       9.04        1.63     0.26   0.994
  SC04                      11.65       0.00       0.00       0.00      11.36       0.00      11.36        0.78     0.13   0.975
  SC05                       7.84       0.00       0.00       0.00       7.72       0.00       7.72        1.20     0.13   0.985
  SC06                       4.90       0.00       0.00       0.00       4.62       0.00       4.62        1.50     0.14   0.942
  SC07                      11.65       0.00       0.00       0.00      11.36       0.00      11.36        0.54     0.09   0.975
  SC08                       9.10       0.00       0.00       0.00       8.98       0.00       8.98        2.51     0.36   0.987
  SC09                       4.90       0.00       0.00       0.00       4.72       0.00       4.72        0.33     0.04   0.964
  
  
  ******************
  Node Depth Summary
  ******************
  
  ---------------------------------------------------------------------------------
                                 Average  Maximum  Maximum  Time of Max    Reported
                                   Depth    Depth      HGL   Occurrence   Max Depth
  Node                 Type       Meters   Meters   Meters  days hr:min      Meters
  ---------------------------------------------------------------------------------
  CSO10                JUNCTION     0.11     0.24    30.24     0  06:35        0.24
  CSO7                 JUNCTION     0.13     1.20    35.20     0  09:13        1.20
  CSO8                 JUNCTION     0.13     0.80    32.80     0  09:05        0.80
  CSO9                 JUNCTION     0.08     0.17    40.17     0  08:45        0.17
  J1                   JUNCTION     0.06     0.13    34.13     0  06:35        0.13
  J10                  JUNCTION     0.09     0.24    29.24     0  09:06        0.24
  J11                  JUNCTION     0.09     0.25    31.25     0  09:06        0.25
  J12                  JUNCTION     0.22     0.54    26.54     0  10:24        0.53
  J13                  JUNCTION     0.06     0.22    29.22     0  09:15        0.21
  J14                  JUNCTION     0.12     0.19    20.19     0  09:47        0.19
  J15                  JUNCTION     0.16     0.26    15.26     0  09:40        0.26
  J16                  JUNCTION     0.06     0.14    30.14     0  06:35        0.14
  J17                  JUNCTION     0.07     0.14    20.14     0  12:25        0.14
  J18                  JUNCTION     0.05     0.11    29.11     0  06:37        0.11
  J19                  JUNCTION     0.14     0.17     8.17     0  09:24        0.17
  J2                   JUNCTION     0.06     0.07    25.07     0  12:45        0.07
  J3                   JUNCTION     0.11     0.17    18.17     0  13:25        0.17
  J4                   JUNCTION     0.13     0.96    33.96     0  09:15        0.75
  J5                   JUNCTION     0.06     0.15    32.15     0  09:17        0.15
  J6                   JUNCTION     0.06     0.12    25.12     0  13:10        0.12
  J7                   JUNCTION     0.07     0.13    39.13     0  08:50        0.13
  J8                   JUNCTION     0.08     0.15    36.15     0  08:51        0.15
  J9                   JUNCTION     0.09     0.15    29.15     0  10:04        0.15
  Out_to_WWTP          OUTFALL      0.14     0.17     6.17     0  14:20        0.17
  T1                   STORAGE      2.95     5.00    15.00     0  09:23        5.00
  T2                   STORAGE      1.81     4.10    25.10     0  13:10        4.10
  T3                   STORAGE      2.46     4.54    26.54     0  10:57        4.53
  T4                   STORAGE      1.84     4.42    31.42     0  13:05        4.42
  T5                   STORAGE      2.16     4.16    31.16     0  12:43        4.16
  T6                   STORAGE      1.70     3.24    34.24     0  09:55        3.24
  
  
  *******************
  Node Inflow Summary
  *******************
  
  -------------------------------------------------------------------------------------------------
                                  Maximum  Maximum                  Lateral       Total        Flow
                                  Lateral    Total  Time of Max      Inflow      Inflow     Balance
                                   Inflow   Inflow   Occurrence      Volume      Volume       Error
  Node                 Type           CMS      CMS  days hr:min    10^6 ltr    10^6 ltr     Percent
  -------------------------------------------------------------------------------------------------
  CSO10                JUNCTION     0.090    0.090     0  06:35        1.09        1.09      -0.013
  CSO7                 JUNCTION     0.101    0.101     0  09:15       0.924       0.925      -0.009
  CSO8                 JUNCTION     0.356    0.356     0  09:05         2.8         2.8      -0.022
  CSO9                 JUNCTION     0.043    0.043     0  08:45       0.585       0.585       0.031
  J1                   JUNCTION     0.143    0.143     0  06:35        1.95        1.95      -0.120
  J10                  JUNCTION     0.266    0.609     0  09:05        2.14        4.94      -0.165
  J11                  JUNCTION     0.000    0.356     0  09:05           0         2.8      -0.065
  J12                  JUNCTION     0.000    0.692     0  09:08           0        8.68       2.470
  J13                  JUNCTION     0.690    0.690     0  09:15        3.25        3.25      -0.198
  J14                  JUNCTION     0.000    0.181     0  10:30           0        4.56       0.317
  J15                  JUNCTION     0.000    0.624     0  09:40           0        13.4       0.392
  J16                  JUNCTION     0.299    0.299     0  06:35        3.29        3.29      -0.140
  J17                  JUNCTION     0.000    0.127     0  13:10           0        1.86      -0.044
  J18                  JUNCTION     0.000    0.090     0  06:35           0        1.09      -0.161
  J19                  JUNCTION     0.000    0.271     0  09:23           0        10.2       0.121
  J2                   JUNCTION     0.000    0.036     0  12:43           0        1.31       0.363
  J3                   JUNCTION     0.000    0.287     0  13:19           0        7.16       0.771
  J4                   JUNCTION     0.000    0.084     0  09:13           0       0.908      -0.104
  J5                   JUNCTION     0.138    0.207     0  09:15       0.953        1.86      -0.080
  J6                   JUNCTION     0.000    0.075     0  13:05           0        1.32       0.291
  J7                   JUNCTION     0.000    0.043     0  08:46           0       0.585       0.276
  J8                   JUNCTION     0.167    0.209     0  08:50        2.75        3.33      -0.003
  J9                   JUNCTION     0.000    0.141     0  09:55           0        2.99       0.788
  Out_to_WWTP          OUTFALL      0.000    0.271     0  09:24           0        10.2       0.000
  T1                   STORAGE      0.000    0.593     0  09:41           0        13.3       6.307
  T2                   STORAGE      0.000    0.676     0  09:15           0        3.26      27.182
  T3                   STORAGE      0.000    0.677     0  09:10           0        8.47      13.613
  T4                   STORAGE      0.000    0.205     0  09:17           0        1.86      14.624
  T5                   STORAGE      0.000    0.142     0  06:35           0        1.95      20.499
  T6                   STORAGE      0.000    0.208     0  08:51           0        3.33       6.234
  
  
  **********************
  Node Surcharge Summary
  **********************
  
  Surcharging occurs when water rises above the top of the highest conduit.
  ---------------------------------------------------------------------
                                               Max. Height   Min. Depth
                                   Hours       Above Crown    Below Rim
  Node                 Type      Surcharged         Meters       Meters
  ---------------------------------------------------------------------
  CSO7                 JUNCTION        0.48          0.945        0.000
  CSO8                 JUNCTION        0.15          0.343        1.204
  J4                   JUNCTION        0.45          0.665        1.035
  
  
  *********************
  Node Flooding Summary
  *********************
  
  Flooding refers to all water that overflows a node, whether it ponds or not.
  --------------------------------------------------------------------------
                                                             Total   Maximum
                                 Maximum   Time of Max       Flood    Ponded
                        Hours       Rate    Occurrence      Volume     Depth
  Node                 Flooded       CMS   days hr:min    10^6 ltr    Meters
  --------------------------------------------------------------------------
  CSO7                    0.33     0.030      0  09:15       0.017     0.000
  T1                      3.68     0.321      0  09:41       1.638     0.000
  
  
  **********************
  Storage Volume Summary
  **********************
  
  --------------------------------------------------------------------------------------------------
                         Average     Avg  Evap Exfil       Maximum     Max    Time of Max    Maximum
                          Volume    Pcnt  Pcnt  Pcnt        Volume    Pcnt     Occurrence    Outflow
  Storage Unit           1000 m3    Full  Loss  Loss       1000 m3    Full    days hr:min        CMS
  --------------------------------------------------------------------------------------------------
  T1                       0.412      59     0     0         0.700     100       0  09:23      0.271
  T2                       0.363      36     0     0         0.819      82       0  13:10      0.127
  T3                       1.280      49     0     0         2.360      91       0  10:57      0.360
  T4                       0.184      37     0     0         0.442      88       0  13:05      0.075
  T5                       0.216      43     0     0         0.416      83       0  12:43      0.036
  T6                       0.204      34     0     0         0.389      65       0  09:55      0.141
  
  
  ***********************
  Outfall Loading Summary
  ***********************
  
  -----------------------------------------------------------
                         Flow       Avg       Max       Total
                         Freq      Flow      Flow      Volume
  Outfall Node           Pcnt       CMS       CMS    10^6 ltr
  -----------------------------------------------------------
  Out_to_WWTP           99.55     0.190     0.271      10.192
  -----------------------------------------------------------
  System                99.55     0.190     0.271      10.192
  
  
  ********************
  Link Flow Summary
  ********************
  
  -----------------------------------------------------------------------------
                                 Maximum  Time of Max   Maximum    Max/    Max/
                                  |Flow|   Occurrence   |Veloc|    Full    Full
  Link                 Type          CMS  days hr:min     m/sec    Flow   Depth
  -----------------------------------------------------------------------------
  C1                   CONDUIT     0.036     0  12:45      0.99    0.01    0.12
  C10                  CONDUIT     0.208     0  08:51      1.75    0.02    0.55
  C11                  CONDUIT     0.284     0  13:25      2.12    0.01    0.10
  C12                  CONDUIT     0.136     0  10:04      1.15    0.01    0.17
  C13                  CONDUIT     0.677     0  09:10      1.44    0.04    0.63
  C14                  CONDUIT     0.271     0  09:24      2.08    0.02    0.09
  C15                  CONDUIT     0.356     0  09:05      2.67    1.13    0.78
  C16                  CONDUIT     0.349     0  09:06      1.59    0.03    0.12
  C17                  CONDUIT     0.602     0  09:06      2.66    0.03    0.15
  C18                  CONDUIT     0.676     0  09:15      4.80    0.03    0.55
  C19                  CONDUIT     0.125     0  12:25      1.52    0.04    0.20
  C2                   CONDUIT     0.074     0  13:10      1.76    0.08    0.24
  C20                  CONDUIT     0.296     0  06:35      3.28    0.01    0.09
  C21                  CONDUIT     0.090     0  06:35      1.57    0.51    0.40
  C22                  CONDUIT     0.088     0  06:37      1.13    0.04    0.22
  C23                  CONDUIT     0.593     0  09:41      1.31    0.07    0.59
  C3                   CONDUIT     0.182     0  10:29      2.23    0.07    0.17
  C4                   CONDUIT     0.142     0  06:35      3.15    0.03    0.56
  C5                   CONDUIT     0.084     0  09:13      1.64    1.43    1.00
  C6                   CONDUIT     0.071     0  09:17      1.29    1.13    0.75
  C7                   CONDUIT     0.205     0  09:17      1.52    0.05    0.58
  C8                   CONDUIT     0.043     0  08:46      1.18    0.54    0.47
  C9                   CONDUIT     0.042     0  08:51      0.93    0.14    0.28
  V1                   ORIFICE     0.271     0  09:23                      1.00
  V2                   ORIFICE     0.127     0  13:10                      1.00
  V3                   ORIFICE     0.181     0  10:30                      1.00
  V4                   ORIFICE     0.075     0  13:05                      1.00
  V5                   ORIFICE     0.036     0  12:43                      1.00
  V6                   ORIFICE     0.141     0  09:55                      1.00
  
  
  ***************************
  Flow Classification Summary
  ***************************
  
  -------------------------------------------------------------------------------------
                      Adjusted    ---------- Fraction of Time in Flow Class ---------- 
                       /Actual         Up    Down  Sub   Sup   Up    Down  Norm  Inlet 
  Conduit               Length    Dry  Dry   Dry   Crit  Crit  Crit  Crit  Ltd   Ctrl  
  -------------------------------------------------------------------------------------
  C1                      1.00   0.00  0.00  0.00  0.65  0.35  0.00  0.00  0.98  0.00
  C10                     1.00   0.00  0.00  0.00  0.98  0.02  0.00  0.00  0.99  0.00
  C11                     1.00   0.00  0.00  0.00  0.09  0.91  0.00  0.00  1.00  0.00
  C12                     1.00   0.00  0.00  0.00  0.85  0.15  0.00  0.00  0.98  0.00
  C13                     1.00   0.00  0.00  0.00  0.94  0.06  0.00  0.00  0.58  0.00
  C14                     1.00   0.00  0.00  0.00  0.01  0.99  0.00  0.00  0.37  0.00
  C15                     1.00   0.00  0.00  0.00  0.00  1.00  0.00  0.00  0.00  0.00
  C16                     1.00   0.00  0.00  0.00  0.47  0.53  0.00  0.00  0.34  0.00
  C17                     1.00   0.00  0.00  0.00  0.36  0.64  0.00  0.00  0.99  0.00
  C18                     1.00   0.00  0.00  0.00  0.97  0.03  0.00  0.00  0.99  0.00
  C19                     1.00   0.00  0.00  0.00  0.83  0.17  0.00  0.00  1.00  0.00
  C2                      1.00   0.00  0.00  0.00  0.48  0.52  0.00  0.00  0.98  0.00
  C20                     1.00   0.00  0.00  0.00  0.63  0.37  0.00  0.00  0.99  0.00
  C21                     1.00   0.00  0.00  0.00  0.00  1.00  0.00  0.00  0.00  0.00
  C22                     1.00   0.00  0.00  0.00  0.98  0.02  0.00  0.00  1.00  0.00
  C23                     1.00   0.00  0.00  0.00  0.95  0.05  0.00  0.00  0.97  0.00
  C3                      1.00   0.00  0.00  0.00  0.03  0.97  0.00  0.00  0.39  0.00
  C4                      1.00   0.00  0.00  0.00  0.98  0.02  0.00  0.00  0.99  0.00
  C5                      1.00   0.00  0.00  0.00  0.89  0.11  0.00  0.00  0.96  0.00
  C6                      1.00   0.00  0.00  0.00  0.06  0.94  0.00  0.00  0.00  0.00
  C7                      1.00   0.00  0.00  0.00  0.97  0.03  0.00  0.00  0.98  0.00
  C8                      1.00   0.00  0.00  0.00  0.08  0.92  0.00  0.00  0.00  0.00
  C9                      1.00   0.00  0.00  0.00  1.00  0.00  0.00  0.00  1.00  0.00
  
  
  *************************
  Conduit Surcharge Summary
  *************************
  
  ----------------------------------------------------------------------------
                                                           Hours        Hours 
                         --------- Hours Full --------   Above Full   Capacity
  Conduit                Both Ends  Upstream  Dnstream   Normal Flow   Limited
  ----------------------------------------------------------------------------
  C10                         0.01      0.01      7.50      0.01         0.01
  C13                         0.01      0.01      8.02      0.01         0.01
  C15                         0.01      0.15      0.01      0.22         0.01
  C18                         0.01      0.01      5.92      0.01         0.01
  C23                         0.01      0.01      9.29      0.01         0.01
  C4                          0.01      0.01     10.47      0.01         0.01
  C5                          0.43      0.46      0.54      0.48         0.43
  C6                          0.01      0.45      0.01      0.37         0.01
  C7                          0.01      0.01      8.48      0.01         0.01
  

  Analysis begun on:  Sun Aug 21 16:49:42 2022
  Analysis ended on:  Sun Aug 21 16:49:45 2022
  Total elapsed time: 00:00:03