
  EPA STORM WATER MANAGEMENT MODEL - VERSION 5.1 (Build 5.3.0.dev0)
  --------------------------------------------------------------

  
  *********************************************************
  NOTE: The summary statistics displayed in this report are
  based on results found at every computational time step,  
  not just on results from each reporting time step.
  *********************************************************
  
  ****************
  Analysis Options
  ****************
  Flow Units ............... CMS
  Process Models:
    Rainfall/Runoff ........ YES
    RDII ................... NO
    Snowmelt ............... NO
    Groundwater ............ NO
    Flow Routing ........... YES
    Ponding Allowed ........ NO
    Water Quality .......... NO
  Infiltration Method ...... HORTON
  Flow Routing Method ...... DYNWAVE
  Surcharge Method ......... EXTRAN
  Starting Date ............ 03/08/2001 08:40:00
  Ending Date .............. 03/08/2001 20:15:00
  Antecedent Dry Days ...... 0.0
  Report Time Step ......... 00:05:00
  Wet Time Step ............ 00:05:00
  Dry Time Step ............ 01:00:00
  Routing Time Step ........ 30.00 sec
  Variable Time Step ....... YES
  Maximum Trials ........... 8
  Number of Threads ........ 1
  Head Tolerance ........... 0.001500 m
  
  
  **************************        Volume         Depth
  Runoff Quantity Continuity     hectare-m            mm
  **************************     ---------       -------
  Total Precipitation ......         1.098         6.095
  Evaporation Loss .........         0.000         0.000
  Infiltration Loss ........         0.000         0.000
  Surface Runoff ...........         1.061         5.890
  Final Storage ............         0.039         0.215
  Continuity Error (%) .....        -0.153
  
  
  **************************        Volume        Volume
  Flow Routing Continuity        hectare-m      10^6 ltr
  **************************     ---------     ---------
  Dry Weather Inflow .......         0.523         5.228
  Wet Weather Inflow .......         1.061        10.611
  Groundwater Inflow .......         0.000         0.000
  RDII Inflow ..............         0.000         0.000
  External Inflow ..........         0.000         0.000
  External Outflow .........         0.645         6.447
  Flooding Loss ............         0.074         0.744
  Evaporation Loss .........         0.000         0.000
  Exfiltration Loss ........         0.000         0.000
  Initial Stored Volume ....         0.000         0.000
  Final Stored Volume ......         0.665         6.652
  Continuity Error (%) .....        12.605
  
  
  *************************
  Highest Continuity Errors
  *************************
  Node T2 (23.35%)
  Node T5 (23.05%)
  Node T3 (20.10%)
  Node T6 (19.05%)
  Node T4 (16.47%)
  
  
  ***************************
  Time-Step Critical Elements
  ***************************
  Link C15 (41.33%)
  
  
  ********************************
  Highest Flow Instability Indexes
  ********************************
  Link V3 (8)
  Link C3 (8)
  Link C11 (7)
  Link C13 (7)
  Link C12 (6)
  
  
  *************************
  Routing Time Step Summary
  *************************
  Minimum Time Step           :     0.25 sec
  Average Time Step           :    27.08 sec
  Maximum Time Step           :    30.00 sec
  Percent in Steady State     :     0.72
  Average Iterations per Step :     2.03
  Percent Not Converging      :     0.00
  
  
  ***************************
  Subcatchment Runoff Summary
  ***************************
  
  ------------------------------------------------------------------------------------------------------------------------------
                            Total      Total      Total      Total     Imperv       Perv      Total       Total     Peak  Runoff
                           Precip      Runon       Evap      Infil     Runoff     Runoff     Runoff      Runoff   Runoff   Coeff
  Subcatchment                 mm         mm         mm         mm         mm         mm         mm    10^6 ltr      CMS
  ------------------------------------------------------------------------------------------------------------------------------
  SC01                       5.74       0.00       0.00       0.00       5.62       0.00       5.62        1.85     0.26   0.978
  SC010                      5.74       0.00       0.00       0.00       5.56       0.00       5.56        0.65     0.08   0.969
  SC02                       6.10       0.00       0.00       0.00       5.96       0.00       5.96        1.36     0.16   0.977
  SC03                       6.82       0.00       0.00       0.00       6.74       0.00       6.74        1.21     0.16   0.988
  SC04                       6.10       0.00       0.00       0.00       5.76       0.00       5.76        0.40     0.04   0.945
  SC05                       5.74       0.00       0.00       0.00       5.60       0.00       5.60        0.87     0.12   0.976
  SC06                       5.79       0.00       0.00       0.00       5.39       0.00       5.39        1.75     0.18   0.931
  SC07                       6.10       0.00       0.00       0.00       5.77       0.00       5.77        0.27     0.03   0.945
  SC08                       6.82       0.00       0.00       0.00       6.63       0.00       6.63        1.86     0.21   0.972
  SC09                       5.79       0.00       0.00       0.00       5.56       0.00       5.56        0.38     0.04   0.960
  
  
  ******************
  Node Depth Summary
  ******************
  
  ---------------------------------------------------------------------------------
                                 Average  Maximum  Maximum  Time of Max    Reported
                                   Depth    Depth      HGL   Occurrence   Max Depth
  Node                 Type       Meters   Meters   Meters  days hr:min      Meters
  ---------------------------------------------------------------------------------
  CSO10                JUNCTION     0.11     0.24    30.24     0  08:55        0.24
  CSO7                 JUNCTION     0.09     0.14    34.14     0  08:55        0.14
  CSO8                 JUNCTION     0.13     0.29    32.29     0  08:50        0.29
  CSO9                 JUNCTION     0.10     0.19    40.19     0  07:41        0.19
  J1                   JUNCTION     0.07     0.12    34.12     0  08:55        0.12
  J10                  JUNCTION     0.09     0.19    29.19     0  08:50        0.19
  J11                  JUNCTION     0.10     0.20    31.20     0  08:51        0.20
  J12                  JUNCTION     0.16     0.38    26.38     0  10:52        0.38
  J13                  JUNCTION     0.06     0.11    29.11     0  08:55        0.11
  J14                  JUNCTION     0.10     0.19    20.19     0  09:52        0.18
  J15                  JUNCTION     0.15     0.25    15.25     0  07:51        0.25
  J16                  JUNCTION     0.06     0.13    30.13     0  08:55        0.13
  J17                  JUNCTION     0.06     0.13    20.13     0  09:55        0.13
  J18                  JUNCTION     0.05     0.11    29.11     0  08:56        0.11
  J19                  JUNCTION     0.13     0.17     8.17     0  08:15        0.17
  J2                   JUNCTION     0.06     0.07    25.07     0  09:47        0.07
  J3                   JUNCTION     0.10     0.16    18.16     0  09:35        0.16
  J4                   JUNCTION     0.11     0.17    33.17     0  08:57        0.17
  J5                   JUNCTION     0.06     0.09    32.09     0  08:56        0.09
  J6                   JUNCTION     0.06     0.11    25.11     0  10:16        0.11
  J7                   JUNCTION     0.08     0.14    39.14     0  07:46        0.14
  J8                   JUNCTION     0.10     0.17    36.17     0  07:46        0.16
  J9                   JUNCTION     0.09     0.16    29.16     0  09:20        0.16
  Out_to_WWTP          OUTFALL      0.13     0.17     6.17     0  10:11        0.17
  T1                   STORAGE      2.35     5.00    15.00     0  08:14        5.00
  T2                   STORAGE      1.12     2.64    23.64     0  09:50        2.64
  T3                   STORAGE      1.81     4.38    26.38     0  10:56        4.38
  T4                   STORAGE      1.30     3.05    30.05     0  10:10        3.05
  T5                   STORAGE      1.85     4.17    31.17     0  09:45        4.17
  T6                   STORAGE      2.05     4.92    35.92     0  09:35        4.92
  
  
  *******************
  Node Inflow Summary
  *******************
  
  -------------------------------------------------------------------------------------------------
                                  Maximum  Maximum                  Lateral       Total        Flow
                                  Lateral    Total  Time of Max      Inflow      Inflow     Balance
                                   Inflow   Inflow   Occurrence      Volume      Volume       Error
  Node                 Type           CMS      CMS  days hr:min    10^6 ltr    10^6 ltr     Percent
  -------------------------------------------------------------------------------------------------
  CSO10                JUNCTION     0.087    0.087     0  08:55       0.839       0.839       0.050
  CSO7                 JUNCTION     0.035    0.035     0  08:55       0.661       0.661       0.063
  CSO8                 JUNCTION     0.218    0.218     0  08:50         2.2         2.2       0.001
  CSO9                 JUNCTION     0.048    0.048     0  07:40       0.645       0.645       0.061
  J1                   JUNCTION     0.133    0.133     0  08:55        1.62        1.62       0.050
  J10                  JUNCTION     0.172    0.379     0  08:50        1.73        3.93       0.050
  J11                  JUNCTION     0.000    0.217     0  08:50           0         2.2       0.104
  J12                  JUNCTION     0.000    0.518     0  08:50           0         6.4       3.642
  J13                  JUNCTION     0.171    0.171     0  08:55        1.98        1.98      -0.087
  J14                  JUNCTION     0.000    0.177     0  10:57           0        2.62       0.328
  J15                  JUNCTION     0.000    0.576     0  07:50           0         8.7       0.785
  J16                  JUNCTION     0.273    0.273     0  08:55        2.59        2.59       0.012
  J17                  JUNCTION     0.000    0.102     0  09:50           0        1.07      -0.018
  J18                  JUNCTION     0.000    0.087     0  08:55           0       0.838       0.131
  J19                  JUNCTION     0.000    0.271     0  08:14           0        6.46       0.191
  J2                   JUNCTION     0.000    0.036     0  09:45           0       0.874       0.578
  J3                   JUNCTION     0.000    0.268     0  09:35           0        4.24       0.726
  J4                   JUNCTION     0.000    0.035     0  08:55           0        0.66       0.524
  J5                   JUNCTION     0.043    0.076     0  08:55       0.567        1.22       0.146
  J6                   JUNCTION     0.000    0.062     0  10:10           0       0.758       0.335
  J7                   JUNCTION     0.000    0.048     0  07:41           0       0.644       0.479
  J8                   JUNCTION     0.202    0.249     0  07:45        3.01        3.65       0.176
  J9                   JUNCTION     0.000    0.174     0  09:35           0        2.44       0.477
  Out_to_WWTP          OUTFALL      0.000    0.271     0  08:16           0        6.45       0.000
  T1                   STORAGE      0.000    0.549     0  07:51           0        8.63       9.884
  T2                   STORAGE      0.000    0.170     0  08:55           0        1.98      30.462
  T3                   STORAGE      0.000    0.476     0  08:52           0        6.18      25.150
  T4                   STORAGE      0.000    0.075     0  08:56           0        1.22      19.715
  T5                   STORAGE      0.000    0.132     0  08:55           0        1.62      29.947
  T6                   STORAGE      0.000    0.249     0  07:46           0        3.64      23.535
  
  
  **********************
  Node Surcharge Summary
  **********************
  
  No nodes were surcharged.
  
  
  *********************
  Node Flooding Summary
  *********************
  
  Flooding refers to all water that overflows a node, whether it ponds or not.
  --------------------------------------------------------------------------
                                                             Total   Maximum
                                 Maximum   Time of Max       Flood    Ponded
                        Hours       Rate    Occurrence      Volume     Depth
  Node                 Flooded       CMS   days hr:min    10^6 ltr    Meters
  --------------------------------------------------------------------------
  T1                      1.67     0.271      0  08:58       0.744     0.000
  
  
  **********************
  Storage Volume Summary
  **********************
  
  --------------------------------------------------------------------------------------------------
                         Average     Avg  Evap Exfil       Maximum     Max    Time of Max    Maximum
                          Volume    Pcnt  Pcnt  Pcnt        Volume    Pcnt     Occurrence    Outflow
  Storage Unit           1000 m3    Full  Loss  Loss       1000 m3    Full    days hr:min        CMS
  --------------------------------------------------------------------------------------------------
  T1                       0.329      47     0     0         0.700     100       0  08:14      0.271
  T2                       0.224      22     0     0         0.527      53       0  09:50      0.102
  T3                       0.943      36     0     0         2.277      88       0  10:56      0.211
  T4                       0.130      26     0     0         0.305      61       0  10:10      0.062
  T5                       0.185      37     0     0         0.417      83       0  09:45      0.036
  T6                       0.246      41     0     0         0.590      98       0  09:35      0.174
  
  
  ***********************
  Outfall Loading Summary
  ***********************
  
  -----------------------------------------------------------
                         Flow       Avg       Max       Total
                         Freq      Flow      Flow      Volume
  Outfall Node           Pcnt       CMS       CMS    10^6 ltr
  -----------------------------------------------------------
  Out_to_WWTP           99.29     0.162     0.271       6.447
  -----------------------------------------------------------
  System                99.29     0.162     0.271       6.447
  
  
  ********************
  Link Flow Summary
  ********************
  
  -----------------------------------------------------------------------------
                                 Maximum  Time of Max   Maximum    Max/    Max/
                                  |Flow|   Occurrence   |Veloc|    Full    Full
  Link                 Type          CMS  days hr:min     m/sec    Flow   Depth
  -----------------------------------------------------------------------------
  C1                   CONDUIT     0.036     0  09:47      1.02    0.01    0.12
  C10                  CONDUIT     0.249     0  07:46      1.66    0.03    0.56
  C11                  CONDUIT     0.260     0  09:35      1.91    0.01    0.10
  C12                  CONDUIT     0.168     0  09:20      1.21    0.01    0.13
  C13                  CONDUIT     0.476     0  08:52      1.50    0.03    0.59
  C14                  CONDUIT     0.271     0  08:16      2.08    0.02    0.09
  C15                  CONDUIT     0.217     0  08:50      2.47    0.69    0.54
  C16                  CONDUIT     0.212     0  08:51      1.36    0.02    0.10
  C17                  CONDUIT     0.373     0  08:51      2.23    0.02    0.11
  C18                  CONDUIT     0.170     0  08:55      3.36    0.01    0.53
  C19                  CONDUIT     0.099     0  09:55      1.35    0.03    0.18
  C2                   CONDUIT     0.061     0  10:17      1.62    0.07    0.22
  C20                  CONDUIT     0.271     0  08:55      2.34    0.01    0.09
  C21                  CONDUIT     0.087     0  08:55      1.56    0.50    0.39
  C22                  CONDUIT     0.086     0  08:56      1.03    0.04    0.22
  C23                  CONDUIT     0.549     0  07:51      1.25    0.06    0.58
  C3                   CONDUIT     0.179     0  10:58      2.21    0.07    0.17
  C4                   CONDUIT     0.132     0  08:55      3.06    0.03    0.56
  C5                   CONDUIT     0.035     0  08:55      1.23    0.59    0.60
  C6                   CONDUIT     0.034     0  08:57      1.13    0.53    0.44
  C7                   CONDUIT     0.075     0  08:56      1.44    0.02    0.55
  C8                   CONDUIT     0.048     0  07:41      1.20    0.61    0.51
  C9                   CONDUIT     0.047     0  07:46      0.95    0.16    0.30
  V1                   ORIFICE     0.271     0  08:14                      1.00
  V2                   ORIFICE     0.102     0  09:50                      1.00
  V3                   ORIFICE     0.177     0  10:57                      1.00
  V4                   ORIFICE     0.062     0  10:10                      1.00
  V5                   ORIFICE     0.036     0  09:45                      1.00
  V6                   ORIFICE     0.174     0  09:35                      1.00
  
  
  ***************************
  Flow Classification Summary
  ***************************
  
  -------------------------------------------------------------------------------------
                      Adjusted    ---------- Fraction of Time in Flow Class ---------- 
                       /Actual         Up    Down  Sub   Sup   Up    Down  Norm  Inlet 
  Conduit               Length    Dry  Dry   Dry   Crit  Crit  Crit  Crit  Ltd   Ctrl  
  -------------------------------------------------------------------------------------
  C1                      1.00   0.00  0.00  0.00  0.54  0.46  0.00  0.00  0.96  0.00
  C10                     1.00   0.00  0.00  0.00  0.97  0.03  0.00  0.00  0.99  0.00
  C11                     1.00   0.00  0.00  0.00  0.17  0.83  0.00  0.00  1.00  0.00
  C12                     1.00   0.00  0.00  0.00  0.81  0.19  0.00  0.00  0.98  0.00
  C13                     1.00   0.00  0.00  0.00  0.92  0.08  0.00  0.00  0.76  0.00
  C14                     1.00   0.00  0.00  0.00  0.00  0.99  0.00  0.00  0.54  0.00
  C15                     1.00   0.00  0.00  0.00  0.00  1.00  0.00  0.00  0.00  0.00
  C16                     1.00   0.00  0.00  0.00  0.53  0.47  0.00  0.00  0.56  0.00
  C17                     1.00   0.00  0.00  0.00  0.15  0.85  0.00  0.00  0.98  0.00
  C18                     1.00   0.00  0.00  0.00  0.94  0.06  0.00  0.00  0.98  0.00
  C19                     1.00   0.00  0.00  0.00  0.89  0.11  0.00  0.00  1.00  0.00
  C2                      1.00   0.00  0.00  0.00  0.53  0.47  0.00  0.00  0.99  0.00
  C20                     1.00   0.00  0.00  0.00  0.55  0.45  0.00  0.00  0.99  0.00
  C21                     1.00   0.00  0.00  0.00  0.00  1.00  0.00  0.00  0.00  0.00
  C22                     1.00   0.00  0.00  0.00  0.99  0.01  0.00  0.00  1.00  0.00
  C23                     1.00   0.00  0.00  0.00  0.93  0.07  0.00  0.00  0.96  0.00
  C3                      1.00   0.00  0.00  0.00  0.03  0.96  0.00  0.00  0.40  0.00
  C4                      1.00   0.00  0.00  0.00  0.97  0.03  0.00  0.00  0.99  0.00
  C5                      1.00   0.00  0.00  0.00  0.93  0.07  0.00  0.00  0.99  0.00
  C6                      1.00   0.00  0.00  0.00  0.01  0.99  0.00  0.00  0.00  0.00
  C7                      1.00   0.00  0.00  0.00  0.97  0.03  0.00  0.00  0.98  0.00
  C8                      1.00   0.00  0.00  0.00  0.00  1.00  0.00  0.00  0.00  0.00
  C9                      1.00   0.00  0.00  0.00  1.00  0.00  0.00  0.00  1.00  0.00
  
  
  *************************
  Conduit Surcharge Summary
  *************************
  
  ----------------------------------------------------------------------------
                                                           Hours        Hours 
                         --------- Hours Full --------   Above Full   Capacity
  Conduit                Both Ends  Upstream  Dnstream   Normal Flow   Limited
  ----------------------------------------------------------------------------
  C10                         0.01      0.01      4.66      0.01         0.01
  C13                         0.01      0.01      4.20      0.01         0.01
  C18                         0.01      0.01      2.78      0.01         0.01
  C23                         0.01      0.01      5.33      0.01         0.01
  C4                          0.01      0.01      5.84      0.01         0.01
  C7                          0.01      0.01      4.84      0.01         0.01
  

  Analysis begun on:  Sun Aug 21 16:50:02 2022
  Analysis ended on:  Sun Aug 21 16:50:03 2022
  Total elapsed time: 00:00:01