
  EPA STORM WATER MANAGEMENT MODEL - VERSION 5.1 (Build 5.3.0.dev0)
  --------------------------------------------------------------

  
  *********************************************************
  NOTE: The summary statistics displayed in this report are
  based on results found at every computational time step,  
  not just on results from each reporting time step.
  *********************************************************
  
  ****************
  Analysis Options
  ****************
  Flow Units ............... CMS
  Process Models:
    Rainfall/Runoff ........ YES
    RDII ................... NO
    Snowmelt ............... NO
    Groundwater ............ NO
    Flow Routing ........... YES
    Ponding Allowed ........ NO
    Water Quality .......... NO
  Infiltration Method ...... HORTON
  Flow Routing Method ...... DYNWAVE
  Surcharge Method ......... EXTRAN
  Starting Date ............ 01/22/2003 02:35:00
  Ending Date .............. 01/22/2003 17:25:00
  Antecedent Dry Days ...... 0.0
  Report Time Step ......... 00:05:00
  Wet Time Step ............ 00:05:00
  Dry Time Step ............ 01:00:00
  Routing Time Step ........ 30.00 sec
  Variable Time Step ....... YES
  Maximum Trials ........... 8
  Number of Threads ........ 1
  Head Tolerance ........... 0.001500 m
  
  
  **************************        Volume         Depth
  Runoff Quantity Continuity     hectare-m            mm
  **************************     ---------       -------
  Total Precipitation ......         1.423         7.897
  Evaporation Loss .........         0.000         0.000
  Infiltration Loss ........         0.000         0.000
  Surface Runoff ...........         1.397         7.755
  Final Storage ............         0.033         0.183
  Continuity Error (%) .....        -0.516
  
  
  **************************        Volume        Volume
  Flow Routing Continuity        hectare-m      10^6 ltr
  **************************     ---------     ---------
  Dry Weather Inflow .......         0.589         5.887
  Wet Weather Inflow .......         1.396        13.964
  Groundwater Inflow .......         0.000         0.000
  RDII Inflow ..............         0.000         0.000
  External Inflow ..........         0.000         0.000
  External Outflow .........         1.029        10.295
  Flooding Loss ............         0.157         1.567
  Evaporation Loss .........         0.000         0.000
  Exfiltration Loss ........         0.000         0.000
  Initial Stored Volume ....         0.000         0.000
  Final Stored Volume ......         0.629         6.287
  Continuity Error (%) .....         8.577
  
  
  *************************
  Highest Continuity Errors
  *************************
  Node T5 (19.94%)
  Node T3 (17.02%)
  Node T2 (14.48%)
  Node T6 (13.02%)
  Node T4 (11.06%)
  
  
  ***************************
  Time-Step Critical Elements
  ***************************
  Link C15 (33.72%)
  Link C21 (7.07%)
  
  
  ********************************
  Highest Flow Instability Indexes
  ********************************
  Link C3 (9)
  Link V3 (8)
  Link C13 (8)
  Link C12 (6)
  Link C19 (6)
  
  
  *************************
  Routing Time Step Summary
  *************************
  Minimum Time Step           :     0.00 sec
  Average Time Step           :    26.33 sec
  Maximum Time Step           :    30.00 sec
  Percent in Steady State     :     8.20
  Average Iterations per Step :     2.20
  Percent Not Converging      :     0.16
  
  
  ***************************
  Subcatchment Runoff Summary
  ***************************
  
  ------------------------------------------------------------------------------------------------------------------------------
                            Total      Total      Total      Total     Imperv       Perv      Total       Total     Peak  Runoff
                           Precip      Runon       Evap      Infil     Runoff     Runoff     Runoff      Runoff   Runoff   Coeff
  Subcatchment                 mm         mm         mm         mm         mm         mm         mm    10^6 ltr      CMS
  ------------------------------------------------------------------------------------------------------------------------------
  SC01                       8.39       0.00       0.00       0.00       8.29       0.00       8.29        2.74     0.40   0.988
  SC010                      8.39       0.00       0.00       0.00       8.22       0.00       8.22        0.97     0.13   0.979
  SC02                       5.14       0.00       0.00       0.00       5.03       0.00       5.03        1.14     0.24   0.978
  SC03                      11.11       0.00       0.00       0.00      11.12       0.00      11.12        2.00     0.83   1.001
  SC04                       5.14       0.00       0.00       0.00       4.87       0.00       4.87        0.34     0.05   0.948
  SC05                       8.39       0.00       0.00       0.00       8.27       0.00       8.27        1.29     0.18   0.986
  SC06                       5.80       0.00       0.00       0.00       5.53       0.00       5.53        1.80     0.21   0.953
  SC07                       5.14       0.00       0.00       0.00       4.87       0.00       4.87        0.23     0.04   0.948
  SC08                      11.11       0.00       0.00       0.00      11.01       0.00      11.01        3.08     1.02   0.991
  SC09                       5.80       0.00       0.00       0.00       5.63       0.00       5.63        0.39     0.05   0.971
  
  
  ******************
  Node Depth Summary
  ******************
  
  ---------------------------------------------------------------------------------
                                 Average  Maximum  Maximum  Time of Max    Reported
                                   Depth    Depth      HGL   Occurrence   Max Depth
  Node                 Type       Meters   Meters   Meters  days hr:min      Meters
  ---------------------------------------------------------------------------------
  CSO10                JUNCTION     0.10     0.32    30.32     0  05:30        0.32
  CSO7                 JUNCTION     0.08     0.17    34.17     0  05:50        0.17
  CSO8                 JUNCTION     0.22     2.00    34.00     0  02:49        2.00
  CSO9                 JUNCTION     0.09     0.21    40.21     0  06:15        0.21
  J1                   JUNCTION     0.06     0.15    34.15     0  05:30        0.15
  J10                  JUNCTION     0.10     0.34    29.34     0  03:00        0.34
  J11                  JUNCTION     0.10     0.30    31.30     0  03:11        0.29
  J12                  JUNCTION     0.23     0.53    26.53     0  14:48        0.51
  J13                  JUNCTION     0.05     0.14    29.14     0  05:50        0.13
  J14                  JUNCTION     0.11     0.19    20.19     0  11:42        0.19
  J15                  JUNCTION     0.15     0.28    15.28     0  05:33        0.28
  J16                  JUNCTION     0.06     0.16    30.16     0  05:21        0.16
  J17                  JUNCTION     0.06     0.12    20.12     0  07:08        0.12
  J18                  JUNCTION     0.05     0.13    29.13     0  05:31        0.13
  J19                  JUNCTION     0.13     0.17     8.17     0  05:38        0.17
  J2                   JUNCTION     0.06     0.08    25.08     0  13:22        0.08
  J3                   JUNCTION     0.10     0.16    18.16     0  13:55        0.16
  J4                   JUNCTION     0.09     0.20    33.20     0  05:54        0.20
  J5                   JUNCTION     0.05     0.11    32.11     0  05:53        0.11
  J6                   JUNCTION     0.05     0.09    25.09     0  07:36        0.09
  J7                   JUNCTION     0.07     0.15    39.15     0  06:18        0.15
  J8                   JUNCTION     0.09     0.18    36.18     0  06:27        0.18
  J9                   JUNCTION     0.08     0.16    29.16     0  11:45        0.16
  Out_to_WWTP          OUTFALL      0.13     0.17     6.17     0  06:50        0.17
  T1                   STORAGE      3.22     5.00    15.00     0  05:36        5.00
  T2                   STORAGE      0.96     1.78    22.78     0  07:00        1.78
  T3                   STORAGE      2.93     4.54    26.54     0  14:43        4.52
  T4                   STORAGE      1.04     1.87    28.87     0  07:30        1.87
  T5                   STORAGE      2.43     4.35    31.35     0  13:20        4.35
  T6                   STORAGE      2.52     5.00    36.00     0  10:03        5.00
  
  
  *******************
  Node Inflow Summary
  *******************
  
  -------------------------------------------------------------------------------------------------
                                  Maximum  Maximum                  Lateral       Total        Flow
                                  Lateral    Total  Time of Max      Inflow      Inflow     Balance
                                   Inflow   Inflow   Occurrence      Volume      Volume       Error
  Node                 Type           CMS      CMS  days hr:min    10^6 ltr    10^6 ltr     Percent
  -------------------------------------------------------------------------------------------------
  CSO10                JUNCTION     0.137    0.137     0  05:30        1.17        1.17      -0.104
  CSO7                 JUNCTION     0.046    0.046     0  05:50       0.664       0.665       0.077
  CSO8                 JUNCTION     1.019    1.019     0  03:00        3.51        3.51      -0.076
  CSO9                 JUNCTION     0.058    0.058     0  06:15       0.681       0.683      -0.069
  J1                   JUNCTION     0.201    0.201     0  05:30        2.13        2.13      -0.121
  J10                  JUNCTION     0.839    1.324     0  03:00        2.57        5.75      -0.221
  J11                  JUNCTION     0.000    0.486     0  03:11           0        3.17      -0.107
  J12                  JUNCTION     0.000    1.323     0  03:00           0        9.41       3.501
  J13                  JUNCTION     0.253    0.253     0  05:50        1.84        1.84      -0.503
  J14                  JUNCTION     0.000    0.180     0  14:35           0        4.45      -0.226
  J15                  JUNCTION     0.000    0.727     0  05:21           0        12.8      -0.296
  J16                  JUNCTION     0.412    0.412     0  05:20        3.56        3.56      -0.198
  J17                  JUNCTION     0.000    0.083     0  07:00           0        1.33       0.033
  J18                  JUNCTION     0.000    0.137     0  05:30           0        1.17      -0.286
  J19                  JUNCTION     0.000    0.271     0  05:37           0        10.3       0.118
  J2                   JUNCTION     0.000    0.037     0  13:21           0        1.31       0.424
  J3                   JUNCTION     0.000    0.263     0  13:55           0        6.66      -0.906
  J4                   JUNCTION     0.000    0.046     0  05:50           0       0.664       0.315
  J5                   JUNCTION     0.059    0.100     0  05:52       0.526        1.19      -0.009
  J6                   JUNCTION     0.000    0.049     0  07:30           0       0.899      -0.219
  J7                   JUNCTION     0.000    0.058     0  06:15           0       0.683       0.037
  J8                   JUNCTION     0.237    0.295     0  06:25         3.2        3.89      -0.100
  J9                   JUNCTION     0.000    0.175     0  10:05           0        2.92       1.509
  Out_to_WWTP          OUTFALL      0.000    0.271     0  05:38           0        10.3       0.000
  T1                   STORAGE      0.000    0.688     0  05:33           0        12.8       6.158
  T2                   STORAGE      0.000    0.249     0  05:51           0        1.85      16.933
  T3                   STORAGE      0.000    1.285     0  03:02           0        9.09      20.504
  T4                   STORAGE      0.000    0.100     0  05:53           0        1.19      12.440
  T5                   STORAGE      0.000    0.200     0  05:30           0        2.13      24.902
  T6                   STORAGE      0.000    0.294     0  06:27           0         3.9      14.967
  
  
  **********************
  Node Surcharge Summary
  **********************
  
  Surcharging occurs when water rises above the top of the highest conduit.
  ---------------------------------------------------------------------
                                               Max. Height   Min. Depth
                                   Hours       Above Crown    Below Rim
  Node                 Type      Surcharged         Meters       Meters
  ---------------------------------------------------------------------
  CSO8                 JUNCTION        0.49          1.547        0.000
  
  
  *********************
  Node Flooding Summary
  *********************
  
  Flooding refers to all water that overflows a node, whether it ponds or not.
  --------------------------------------------------------------------------
                                                             Total   Maximum
                                 Maximum   Time of Max       Flood    Ponded
                        Hours       Rate    Occurrence      Volume     Depth
  Node                 Flooded       CMS   days hr:min    10^6 ltr    Meters
  --------------------------------------------------------------------------
  CSO8                    0.36     0.529      0  03:00       0.344     0.000
  T1                      2.90     0.408      0  05:36       1.152     0.000
  T6                      0.41     0.086      0  10:03       0.070     0.000
  
  
  **********************
  Storage Volume Summary
  **********************
  
  --------------------------------------------------------------------------------------------------
                         Average     Avg  Evap Exfil       Maximum     Max    Time of Max    Maximum
                          Volume    Pcnt  Pcnt  Pcnt        Volume    Pcnt     Occurrence    Outflow
  Storage Unit           1000 m3    Full  Loss  Loss       1000 m3    Full    days hr:min        CMS
  --------------------------------------------------------------------------------------------------
  T1                       0.451      64     0     0         0.700     100       0  05:36      0.271
  T2                       0.192      19     0     0         0.356      36       0  07:00      0.083
  T3                       1.523      59     0     0         2.360      91       0  14:43      0.445
  T4                       0.104      21     0     0         0.187      37       0  07:30      0.049
  T5                       0.243      49     0     0         0.435      87       0  13:20      0.037
  T6                       0.303      50     0     0         0.600     100       0  10:03      0.175
  
  
  ***********************
  Outfall Loading Summary
  ***********************
  
  -----------------------------------------------------------
                         Flow       Avg       Max       Total
                         Freq      Flow      Flow      Volume
  Outfall Node           Pcnt       CMS       CMS    10^6 ltr
  -----------------------------------------------------------
  Out_to_WWTP           99.00     0.191     0.271      10.295
  -----------------------------------------------------------
  System                99.00     0.191     0.271      10.295
  
  
  ********************
  Link Flow Summary
  ********************
  
  -----------------------------------------------------------------------------
                                 Maximum  Time of Max   Maximum    Max/    Max/
                                  |Flow|   Occurrence   |Veloc|    Full    Full
  Link                 Type          CMS  days hr:min     m/sec    Flow   Depth
  -----------------------------------------------------------------------------
  C1                   CONDUIT     0.037     0  13:22      1.06    0.01    0.12
  C10                  CONDUIT     0.294     0  06:27      2.35    0.03    0.56
  C11                  CONDUIT     0.251     0  08:50      2.01    0.01    0.10
  C12                  CONDUIT     0.168     0  11:45      1.15    0.01    0.17
  C13                  CONDUIT     1.285     0  03:02      2.61    0.08    0.63
  C14                  CONDUIT     0.271     0  05:38      2.08    0.02    0.09
  C15                  CONDUIT     0.486     0  03:11      3.53    1.55    0.83
  C16                  CONDUIT     0.486     0  03:07      1.80    0.05    0.16
  C17                  CONDUIT     1.297     0  03:00      3.43    0.06    0.18
  C18                  CONDUIT     0.249     0  05:51      1.21    0.01    0.46
  C19                  CONDUIT     0.082     0  07:08      1.30    0.03    0.19
  C2                   CONDUIT     0.048     0  07:37      1.46    0.05    0.21
  C20                  CONDUIT     0.410     0  05:21      2.30    0.01    0.11
  C21                  CONDUIT     0.137     0  05:30      1.72    0.78    0.52
  C22                  CONDUIT     0.136     0  05:31      1.32    0.06    0.26
  C23                  CONDUIT     0.688     0  05:33      0.92    0.08    0.59
  C3                   CONDUIT     0.181     0  14:38      2.25    0.07    0.17
  C4                   CONDUIT     0.200     0  05:30      1.11    0.05    0.57
  C5                   CONDUIT     0.046     0  05:50      1.24    0.79    0.72
  C6                   CONDUIT     0.044     0  05:55      1.21    0.70    0.51
  C7                   CONDUIT     0.100     0  05:53      0.83    0.02    0.55
  C8                   CONDUIT     0.058     0  06:15      1.74    0.74    0.57
  C9                   CONDUIT     0.058     0  06:19      1.04    0.20    0.33
  V1                   ORIFICE     0.271     0  05:37                      1.00
  V2                   ORIFICE     0.083     0  07:00                      1.00
  V3                   ORIFICE     0.180     0  14:35                      1.00
  V4                   ORIFICE     0.049     0  07:30                      1.00
  V5                   ORIFICE     0.037     0  13:21                      1.00
  V6                   ORIFICE     0.175     0  10:05                      1.00
  
  
  ***************************
  Flow Classification Summary
  ***************************
  
  -------------------------------------------------------------------------------------
                      Adjusted    ---------- Fraction of Time in Flow Class ---------- 
                       /Actual         Up    Down  Sub   Sup   Up    Down  Norm  Inlet 
  Conduit               Length    Dry  Dry   Dry   Crit  Crit  Crit  Crit  Ltd   Ctrl  
  -------------------------------------------------------------------------------------
  C1                      1.00   0.00  0.00  0.00  0.51  0.49  0.00  0.00  0.94  0.00
  C10                     1.00   0.00  0.00  0.00  0.90  0.10  0.00  0.00  0.96  0.00
  C11                     1.00   0.00  0.00  0.00  0.15  0.85  0.00  0.00  1.00  0.00
  C12                     1.00   0.00  0.00  0.00  0.86  0.14  0.00  0.00  0.96  0.00
  C13                     1.00   0.00  0.00  0.00  0.83  0.17  0.00  0.00  0.39  0.00
  C14                     1.00   0.01  0.00  0.00  0.01  0.99  0.00  0.00  0.43  0.00
  C15                     1.00   0.04  0.00  0.00  0.00  0.95  0.00  0.00  0.00  0.00
  C16                     1.00   0.00  0.04  0.00  0.24  0.72  0.00  0.00  0.20  0.00
  C17                     1.00   0.00  0.00  0.00  0.56  0.44  0.00  0.00  0.96  0.00
  C18                     1.00   0.00  0.00  0.00  0.82  0.18  0.00  0.00  0.97  0.00
  C19                     1.00   0.00  0.00  0.00  0.90  0.10  0.00  0.00  1.00  0.00
  C2                      1.00   0.00  0.00  0.00  0.63  0.37  0.00  0.00  0.99  0.00
  C20                     1.00   0.00  0.00  0.00  0.69  0.31  0.00  0.00  0.99  0.00
  C21                     1.00   0.00  0.00  0.00  0.00  1.00  0.00  0.00  0.00  0.00
  C22                     1.00   0.00  0.00  0.00  0.96  0.04  0.00  0.00  1.00  0.00
  C23                     1.00   0.00  0.00  0.00  0.86  0.14  0.00  0.00  0.94  0.00
  C3                      1.00   0.00  0.00  0.00  0.06  0.94  0.00  0.00  0.44  0.00
  C4                      1.00   0.00  0.00  0.00  0.90  0.10  0.00  0.00  0.96  0.00
  C5                      1.00   0.00  0.00  0.00  0.90  0.10  0.00  0.00  0.98  0.00
  C6                      1.00   0.00  0.00  0.00  0.01  0.99  0.00  0.00  0.00  0.00
  C7                      1.00   0.00  0.00  0.00  0.90  0.10  0.00  0.00  0.95  0.00
  C8                      1.00   0.00  0.00  0.00  0.02  0.98  0.00  0.00  0.00  0.00
  C9                      1.00   0.00  0.00  0.00  1.00  0.00  0.00  0.00  1.00  0.00
  
  
  *************************
  Conduit Surcharge Summary
  *************************
  
  ----------------------------------------------------------------------------
                                                           Hours        Hours 
                         --------- Hours Full --------   Above Full   Capacity
  Conduit                Both Ends  Upstream  Dnstream   Normal Flow   Limited
  ----------------------------------------------------------------------------
  C10                         0.01      0.01      8.61      0.01         0.01
  C13                         0.01      0.01     11.53      0.01         0.01
  C15                         0.01      0.49      0.01      0.51         0.01
  C23                         0.01      0.01     10.39      0.01         0.01
  C4                          0.01      0.01     10.22      0.01         0.01
  C7                          0.01      0.01      8.98      0.01         0.01
  

  Analysis begun on:  Sun Aug 21 16:49:51 2022
  Analysis ended on:  Sun Aug 21 16:49:52 2022
  Total elapsed time: 00:00:01