
  EPA STORM WATER MANAGEMENT MODEL - VERSION 5.1 (Build 5.3.0.dev0)
  --------------------------------------------------------------

  
  *********************************************************
  NOTE: The summary statistics displayed in this report are
  based on results found at every computational time step,  
  not just on results from each reporting time step.
  *********************************************************
  
  ****************
  Analysis Options
  ****************
  Flow Units ............... CMS
  Process Models:
    Rainfall/Runoff ........ YES
    RDII ................... NO
    Snowmelt ............... NO
    Groundwater ............ NO
    Flow Routing ........... YES
    Ponding Allowed ........ NO
    Water Quality .......... NO
  Infiltration Method ...... HORTON
  Flow Routing Method ...... DYNWAVE
  Surcharge Method ......... EXTRAN
  Starting Date ............ 11/04/2003 01:00:00
  Ending Date .............. 11/04/2003 10:30:00
  Antecedent Dry Days ...... 0.0
  Report Time Step ......... 00:05:00
  Wet Time Step ............ 00:05:00
  Dry Time Step ............ 01:00:00
  Routing Time Step ........ 30.00 sec
  Variable Time Step ....... YES
  Maximum Trials ........... 8
  Number of Threads ........ 1
  Head Tolerance ........... 0.001500 m
  
  
  **************************        Volume         Depth
  Runoff Quantity Continuity     hectare-m            mm
  **************************     ---------       -------
  Total Precipitation ......         1.592         8.834
  Evaporation Loss .........         0.000         0.000
  Infiltration Loss ........         0.000         0.000
  Surface Runoff ...........         1.551         8.607
  Final Storage ............         0.055         0.303
  Continuity Error (%) .....        -0.848
  
  
  **************************        Volume        Volume
  Flow Routing Continuity        hectare-m      10^6 ltr
  **************************     ---------     ---------
  Dry Weather Inflow .......         0.258         2.578
  Wet Weather Inflow .......         1.549        15.490
  Groundwater Inflow .......         0.000         0.000
  RDII Inflow ..............         0.000         0.000
  External Inflow ..........         0.000         0.000
  External Outflow .........         0.502         5.016
  Flooding Loss ............         0.475         4.745
  Evaporation Loss .........         0.000         0.000
  Exfiltration Loss ........         0.000         0.000
  Initial Stored Volume ....         0.000         0.000
  Final Stored Volume ......         0.635         6.348
  Continuity Error (%) .....        10.847
  
  
  *************************
  Highest Continuity Errors
  *************************
  Node T2 (32.38%)
  Node T3 (30.60%)
  Node T5 (20.34%)
  Node T6 (15.87%)
  Node T4 (11.42%)
  
  
  ***************************
  Time-Step Critical Elements
  ***************************
  Link C15 (23.65%)
  Link C21 (3.75%)
  Link C8 (1.47%)
  
  
  ********************************
  Highest Flow Instability Indexes
  ********************************
  Link C2 (12)
  Link C11 (10)
  Link C23 (4)
  Link V4 (4)
  Link C12 (3)
  
  
  *************************
  Routing Time Step Summary
  *************************
  Minimum Time Step           :     0.86 sec
  Average Time Step           :    27.64 sec
  Maximum Time Step           :    30.00 sec
  Percent in Steady State     :    11.58
  Average Iterations per Step :     2.21
  Percent Not Converging      :     1.65
  
  
  ***************************
  Subcatchment Runoff Summary
  ***************************
  
  ------------------------------------------------------------------------------------------------------------------------------
                            Total      Total      Total      Total     Imperv       Perv      Total       Total     Peak  Runoff
                           Precip      Runon       Evap      Infil     Runoff     Runoff     Runoff      Runoff   Runoff   Coeff
  Subcatchment                 mm         mm         mm         mm         mm         mm         mm    10^6 ltr      CMS
  ------------------------------------------------------------------------------------------------------------------------------
  SC01                      11.93       0.00       0.00       0.00      11.88       0.00      11.88        3.92     2.87   0.996
  SC010                     11.93       0.00       0.00       0.00      11.77       0.00      11.77        1.38     0.87   0.987
  SC02                       5.92       0.00       0.00       0.00       5.78       0.00       5.78        1.31     0.45   0.976
  SC03                       5.00       0.00       0.00       0.00       4.93       0.00       4.93        0.89     0.29   0.987
  SC04                       5.92       0.00       0.00       0.00       5.51       0.00       5.51        0.38     0.07   0.930
  SC05                      11.93       0.00       0.00       0.00      11.86       0.00      11.86        1.85     1.30   0.994
  SC06                      11.11       0.00       0.00       0.00      10.51       0.00      10.51        3.42     1.36   0.946
  SC07                       5.92       0.00       0.00       0.00       5.51       0.00       5.51        0.26     0.05   0.931
  SC08                       5.00       0.00       0.00       0.00       4.78       0.00       4.78        1.34     0.30   0.957
  SC09                      11.11       0.00       0.00       0.00      10.86       0.00      10.86        0.75     0.39   0.978
  
  
  ******************
  Node Depth Summary
  ******************
  
  ---------------------------------------------------------------------------------
                                 Average  Maximum  Maximum  Time of Max    Reported
                                   Depth    Depth      HGL   Occurrence   Max Depth
  Node                 Type       Meters   Meters   Meters  days hr:min      Meters
  ---------------------------------------------------------------------------------
  CSO10                JUNCTION     0.17     1.00    31.00     0  07:10        1.00
  CSO7                 JUNCTION     0.08     0.22    34.22     0  07:26        0.20
  CSO8                 JUNCTION     0.12     0.38    32.38     0  07:25        0.38
  CSO9                 JUNCTION     0.23     2.00    42.00     0  07:16        2.00
  J1                   JUNCTION     0.08     0.39    34.39     0  07:20        0.38
  J10                  JUNCTION     0.09     0.23    29.23     0  07:27        0.22
  J11                  JUNCTION     0.09     0.23    31.23     0  07:27        0.23
  J12                  JUNCTION     0.12     0.26    26.26     0  07:29        0.26
  J13                  JUNCTION     0.06     0.18    29.18     0  07:25        0.17
  J14                  JUNCTION     0.07     0.15    20.15     0  07:22        0.15
  J15                  JUNCTION     0.16     0.58    15.58     0  07:23        0.57
  J16                  JUNCTION     0.08     0.41    30.41     0  07:20        0.39
  J17                  JUNCTION     0.05     0.10    20.10     0  03:35        0.10
  J18                  JUNCTION     0.06     0.16    29.16     0  07:37        0.16
  J19                  JUNCTION     0.12     0.17     8.17     0  07:23        0.17
  J2                   JUNCTION     0.05     0.08    25.08     0  08:08        0.08
  J3                   JUNCTION     0.08     0.13    18.13     0  07:25        0.13
  J4                   JUNCTION     0.10     0.23    33.23     0  07:32        0.23
  J5                   JUNCTION     0.06     0.12    32.12     0  07:31        0.12
  J6                   JUNCTION     0.05     0.10    25.10     0  08:35        0.10
  J7                   JUNCTION     0.08     0.23    39.23     0  07:40        0.23
  J8                   JUNCTION     0.11     0.40    36.40     0  07:25        0.40
  J9                   JUNCTION     0.08     0.16    29.16     0  09:15        0.16
  Out_to_WWTP          OUTFALL      0.12     0.17     6.17     0  07:24        0.17
  T1                   STORAGE      2.04     5.00    15.00     0  07:22        5.00
  T2                   STORAGE      1.22     2.62    23.62     0  09:15        2.62
  T3                   STORAGE      1.47     3.78    25.78     0  09:30        3.78
  T4                   STORAGE      0.82     1.90    28.90     0  08:30        1.90
  T5                   STORAGE      1.88     5.00    32.00     0  07:23        5.00
  T6                   STORAGE      2.06     5.00    36.00     0  07:27        5.00
  
  
  *******************
  Node Inflow Summary
  *******************
  
  -------------------------------------------------------------------------------------------------
                                  Maximum  Maximum                  Lateral       Total        Flow
                                  Lateral    Total  Time of Max      Inflow      Inflow     Balance
                                   Inflow   Inflow   Occurrence      Volume      Volume       Error
  Node                 Type           CMS      CMS  days hr:min    10^6 ltr    10^6 ltr     Percent
  -------------------------------------------------------------------------------------------------
  CSO10                JUNCTION     0.878    0.878     0  07:20        1.47        1.48      -0.021
  CSO7                 JUNCTION     0.060    0.060     0  07:25       0.453       0.453       0.210
  CSO8                 JUNCTION     0.309    0.309     0  07:25        1.51        1.51      -0.013
  CSO9                 JUNCTION     0.392    0.392     0  07:20       0.878        0.88       0.025
  J1                   JUNCTION     1.321    1.321     0  07:20        2.22        2.22       0.080
  J10                  JUNCTION     0.299    0.569     0  07:25        1.14        2.65       0.160
  J11                  JUNCTION     0.000    0.308     0  07:25           0        1.51       0.357
  J12                  JUNCTION     0.000    0.678     0  07:25           0        4.44       1.567
  J13                  JUNCTION     0.462    0.462     0  07:25        1.62        1.62      -0.148
  J14                  JUNCTION     0.000    0.116     0  07:25           0        1.07       0.361
  J15                  JUNCTION     0.000    3.161     0  07:20           0         8.2       0.667
  J16                  JUNCTION     2.891    2.891     0  07:20        4.28        4.28      -0.045
  J17                  JUNCTION     0.000    0.064     0  03:30           0       0.576       0.773
  J18                  JUNCTION     0.000    0.202     0  07:37           0        1.03       0.002
  J19                  JUNCTION     0.000    0.271     0  07:22           0        5.03       0.227
  J2                   JUNCTION     0.000    0.039     0  07:24           0       0.688       0.826
  J3                   JUNCTION     0.000    0.185     0  07:25           0        2.35       1.442
  J4                   JUNCTION     0.000    0.059     0  07:27           0       0.452       1.015
  J5                   JUNCTION     0.078    0.125     0  07:30       0.464       0.913       0.217
  J6                   JUNCTION     0.000    0.049     0  08:30           0       0.624       4.881
  J7                   JUNCTION     0.000    0.127     0  07:40           0       0.668       0.401
  J8                   JUNCTION     1.385    1.510     0  07:25        4.04        4.71       0.109
  J9                   JUNCTION     0.000    0.175     0  07:30           0        1.83       1.551
  Out_to_WWTP          OUTFALL      0.000    0.271     0  07:24           0        5.02       0.000
  T1                   STORAGE      0.000    2.781     0  07:22           0        8.15       7.368
  T2                   STORAGE      0.000    0.448     0  07:26           0        1.63      47.878
  T3                   STORAGE      0.000    0.623     0  07:29           0        4.37      44.084
  T4                   STORAGE      0.000    0.124     0  07:31           0       0.911      12.888
  T5                   STORAGE      0.000    1.310     0  07:20           0        2.22      25.534
  T6                   STORAGE      0.000    1.498     0  07:25           0        4.71      18.860
  
  
  **********************
  Node Surcharge Summary
  **********************
  
  Surcharging occurs when water rises above the top of the highest conduit.
  ---------------------------------------------------------------------
                                               Max. Height   Min. Depth
                                   Hours       Above Crown    Below Rim
  Node                 Type      Surcharged         Meters       Meters
  ---------------------------------------------------------------------
  CSO10                JUNCTION        0.51          0.560        0.000
  CSO9                 JUNCTION        0.55          1.682        0.000
  
  
  *********************
  Node Flooding Summary
  *********************
  
  Flooding refers to all water that overflows a node, whether it ponds or not.
  --------------------------------------------------------------------------
                                                             Total   Maximum
                                 Maximum   Time of Max       Flood    Ponded
                        Hours       Rate    Occurrence      Volume     Depth
  Node                 Flooded       CMS   days hr:min    10^6 ltr    Meters
  --------------------------------------------------------------------------
  CSO10                   0.46     0.672      0  07:20       0.444     0.000
  CSO9                    0.41     0.266      0  07:20       0.211     0.000
  T1                      0.83     2.470      0  07:22       1.943     0.000
  T5                      0.99     1.004      0  07:23       0.592     0.000
  T6                      1.17     1.359      0  07:27       1.550     0.000
  
  
  **********************
  Storage Volume Summary
  **********************
  
  --------------------------------------------------------------------------------------------------
                         Average     Avg  Evap Exfil       Maximum     Max    Time of Max    Maximum
                          Volume    Pcnt  Pcnt  Pcnt        Volume    Pcnt     Occurrence    Outflow
  Storage Unit           1000 m3    Full  Loss  Loss       1000 m3    Full    days hr:min        CMS
  --------------------------------------------------------------------------------------------------
  T1                       0.286      41     0     0         0.700     100       0  07:22      0.271
  T2                       0.244      24     0     0         0.525      52       0  09:15      0.064
  T3                       0.765      29     0     0         1.964      76       0  09:30      0.116
  T4                       0.082      16     0     0         0.190      38       0  08:30      0.049
  T5                       0.188      38     0     0         0.500     100       0  07:23      0.039
  T6                       0.247      41     0     0         0.600     100       0  07:27      0.175
  
  
  ***********************
  Outfall Loading Summary
  ***********************
  
  -----------------------------------------------------------
                         Flow       Avg       Max       Total
                         Freq      Flow      Flow      Volume
  Outfall Node           Pcnt       CMS       CMS    10^6 ltr
  -----------------------------------------------------------
  Out_to_WWTP           98.53     0.152     0.271       5.016
  -----------------------------------------------------------
  System                98.53     0.152     0.271       5.016
  
  
  ********************
  Link Flow Summary
  ********************
  
  -----------------------------------------------------------------------------
                                 Maximum  Time of Max   Maximum    Max/    Max/
                                  |Flow|   Occurrence   |Veloc|    Full    Full
  Link                 Type          CMS  days hr:min     m/sec    Flow   Depth
  -----------------------------------------------------------------------------
  C1                   CONDUIT     0.039     0  08:08      1.13    0.01    0.10
  C10                  CONDUIT     1.498     0  07:25      2.35    0.15    0.63
  C11                  CONDUIT     0.161     0  07:25      1.47    0.01    0.17
  C12                  CONDUIT     0.171     0  09:15      1.48    0.01    0.10
  C13                  CONDUIT     0.623     0  07:29      1.59    0.04    0.57
  C14                  CONDUIT     0.271     0  07:24      2.08    0.02    0.09
  C15                  CONDUIT     0.308     0  07:25      2.75    0.98    0.67
  C16                  CONDUIT     0.293     0  07:27      1.47    0.03    0.11
  C17                  CONDUIT     0.558     0  07:27      2.71    0.03    0.12
  C18                  CONDUIT     0.448     0  07:26      1.78    0.02    0.54
  C19                  CONDUIT     0.061     0  03:35      1.09    0.02    0.32
  C2                   CONDUIT     0.048     0  09:15      1.46    0.05    0.18
  C20                  CONDUIT     2.856     0  07:20      5.03    0.09    0.24
  C21                  CONDUIT     0.202     0  07:37      1.86    1.16    0.69
  C22                  CONDUIT     0.202     0  07:37      1.62    0.09    0.46
  C23                  CONDUIT     2.781     0  07:22      2.14    0.31    0.69
  C3                   CONDUIT     0.116     0  07:25      1.90    0.04    0.14
  C4                   CONDUIT     1.310     0  07:20      2.25    0.32    0.69
  C5                   CONDUIT     0.059     0  07:27      1.36    1.01    0.84
  C6                   CONDUIT     0.054     0  07:32      1.25    0.86    0.59
  C7                   CONDUIT     0.124     0  07:31      1.26    0.03    0.56
  C8                   CONDUIT     0.127     0  07:40      1.87    1.60    0.86
  C9                   CONDUIT     0.127     0  07:40      1.23    0.43    0.63
  V1                   ORIFICE     0.271     0  07:22                      1.00
  V2                   ORIFICE     0.064     0  03:30                      1.00
  V3                   ORIFICE     0.116     0  07:25                      1.00
  V4                   ORIFICE     0.049     0  08:30                      1.00
  V5                   ORIFICE     0.039     0  07:24                      1.00
  V6                   ORIFICE     0.175     0  07:30                      1.00
  
  
  ***************************
  Flow Classification Summary
  ***************************
  
  -------------------------------------------------------------------------------------
                      Adjusted    ---------- Fraction of Time in Flow Class ---------- 
                       /Actual         Up    Down  Sub   Sup   Up    Down  Norm  Inlet 
  Conduit               Length    Dry  Dry   Dry   Crit  Crit  Crit  Crit  Ltd   Ctrl  
  -------------------------------------------------------------------------------------
  C1                      1.00   0.00  0.00  0.00  0.16  0.84  0.00  0.00  0.94  0.00
  C10                     1.00   0.00  0.00  0.00  0.89  0.11  0.00  0.00  0.93  0.00
  C11                     1.00   0.00  0.00  0.00  0.42  0.58  0.00  0.00  1.00  0.00
  C12                     1.00   0.00  0.00  0.00  0.57  0.43  0.00  0.00  0.93  0.00
  C13                     1.00   0.00  0.00  0.00  0.91  0.09  0.00  0.00  0.92  0.00
  C14                     1.00   0.01  0.00  0.00  0.01  0.98  0.00  0.00  0.54  0.00
  C15                     1.00   0.01  0.00  0.00  0.00  0.99  0.00  0.00  0.00  0.00
  C16                     1.00   0.00  0.01  0.00  0.32  0.66  0.00  0.00  0.11  0.00
  C17                     1.00   0.00  0.00  0.00  0.16  0.84  0.00  0.00  0.94  0.00
  C18                     1.00   0.00  0.00  0.00  0.94  0.06  0.00  0.00  0.96  0.00
  C19                     1.00   0.00  0.00  0.00  0.91  0.08  0.00  0.00  0.99  0.00
  C2                      1.00   0.00  0.00  0.00  0.32  0.68  0.00  0.00  0.97  0.00
  C20                     1.00   0.00  0.00  0.00  0.44  0.56  0.00  0.00  0.99  0.00
  C21                     1.00   0.00  0.00  0.00  0.01  0.99  0.00  0.00  0.00  0.00
  C22                     1.00   0.00  0.00  0.00  0.90  0.10  0.00  0.00  1.00  0.00
  C23                     1.00   0.00  0.00  0.00  0.91  0.09  0.00  0.00  0.92  0.00
  C3                      1.00   0.00  0.01  0.00  0.04  0.96  0.00  0.00  0.89  0.00
  C4                      1.00   0.00  0.00  0.00  0.92  0.08  0.00  0.00  0.94  0.00
  C5                      1.00   0.00  0.00  0.00  0.75  0.25  0.00  0.00  0.95  0.00
  C6                      1.00   0.00  0.00  0.00  0.04  0.96  0.00  0.00  0.00  0.00
  C7                      1.00   0.00  0.00  0.00  0.93  0.07  0.00  0.00  0.95  0.00
  C8                      1.00   0.00  0.00  0.00  0.16  0.84  0.00  0.00  0.00  0.00
  C9                      1.00   0.00  0.00  0.00  1.00  0.00  0.00  0.00  1.00  0.00
  
  
  *************************
  Conduit Surcharge Summary
  *************************
  
  ----------------------------------------------------------------------------
                                                           Hours        Hours 
                         --------- Hours Full --------   Above Full   Capacity
  Conduit                Both Ends  Upstream  Dnstream   Normal Flow   Limited
  ----------------------------------------------------------------------------
  C10                         0.01      0.01      5.52      0.01         0.01
  C13                         0.01      0.01      2.04      0.01         0.01
  C18                         0.01      0.01      1.92      0.01         0.01
  C21                         0.01      0.51      0.01      0.49         0.01
  C23                         0.01      0.01      5.68      0.01         0.01
  C4                          0.01      0.01      5.69      0.01         0.01
  C5                          0.01      0.01      0.01      0.03         0.01
  C7                          0.01      0.01      2.02      0.01         0.01
  C8                          0.01      0.55      0.01      0.57         0.01
  

  Analysis begun on:  Sun Aug 21 16:49:36 2022
  Analysis ended on:  Sun Aug 21 16:49:39 2022
  Total elapsed time: 00:00:03