
  EPA STORM WATER MANAGEMENT MODEL - VERSION 5.1 (Build 5.3.0.dev0)
  --------------------------------------------------------------

  
  *********************************************************
  NOTE: The summary statistics displayed in this report are
  based on results found at every computational time step,  
  not just on results from each reporting time step.
  *********************************************************
  
  ****************
  Analysis Options
  ****************
  Flow Units ............... CMS
  Process Models:
    Rainfall/Runoff ........ YES
    RDII ................... NO
    Snowmelt ............... NO
    Groundwater ............ NO
    Flow Routing ........... YES
    Ponding Allowed ........ NO
    Water Quality .......... NO
  Infiltration Method ...... HORTON
  Flow Routing Method ...... DYNWAVE
  Surcharge Method ......... EXTRAN
  Starting Date ............ 02/10/2004 00:55:00
  Ending Date .............. 02/10/2004 12:55:00
  Antecedent Dry Days ...... 0.0
  Report Time Step ......... 00:05:00
  Wet Time Step ............ 00:05:00
  Dry Time Step ............ 01:00:00
  Routing Time Step ........ 30.00 sec
  Variable Time Step ....... YES
  Maximum Trials ........... 8
  Number of Threads ........ 1
  Head Tolerance ........... 0.001500 m
  
  
  **************************        Volume         Depth
  Runoff Quantity Continuity     hectare-m            mm
  **************************     ---------       -------
  Total Precipitation ......         1.803        10.006
  Evaporation Loss .........         0.000         0.000
  Infiltration Loss ........         0.000         0.000
  Surface Runoff ...........         1.773         9.837
  Final Storage ............         0.034         0.188
  Continuity Error (%) .....        -0.187
  
  
  **************************        Volume        Volume
  Flow Routing Continuity        hectare-m      10^6 ltr
  **************************     ---------     ---------
  Dry Weather Inflow .......         0.399         3.994
  Wet Weather Inflow .......         1.773        17.730
  Groundwater Inflow .......         0.000         0.000
  RDII Inflow ..............         0.000         0.000
  External Inflow ..........         0.000         0.000
  External Outflow .........         0.953         9.534
  Flooding Loss ............         0.337         3.374
  Evaporation Loss .........         0.000         0.000
  Exfiltration Loss ........         0.000         0.000
  Initial Stored Volume ....         0.000         0.000
  Final Stored Volume ......         0.699         6.993
  Continuity Error (%) .....         8.390
  
  
  *************************
  Highest Continuity Errors
  *************************
  Node T5 (18.66%)
  Node T2 (18.59%)
  Node T3 (18.22%)
  Node T6 (10.62%)
  Node T4 (10.47%)
  
  
  ***************************
  Time-Step Critical Elements
  ***************************
  Link C15 (35.42%)
  
  
  ********************************
  Highest Flow Instability Indexes
  ********************************
  Link V3 (11)
  Link C3 (10)
  Link C13 (9)
  Link C11 (7)
  Link C12 (7)
  
  
  *************************
  Routing Time Step Summary
  *************************
  Minimum Time Step           :     0.29 sec
  Average Time Step           :    25.98 sec
  Maximum Time Step           :    30.00 sec
  Percent in Steady State     :     9.90
  Average Iterations per Step :     2.56
  Percent Not Converging      :     1.13
  
  
  ***************************
  Subcatchment Runoff Summary
  ***************************
  
  ------------------------------------------------------------------------------------------------------------------------------
                            Total      Total      Total      Total     Imperv       Perv      Total       Total     Peak  Runoff
                           Precip      Runon       Evap      Infil     Runoff     Runoff     Runoff      Runoff   Runoff   Coeff
  Subcatchment                 mm         mm         mm         mm         mm         mm         mm    10^6 ltr      CMS
  ------------------------------------------------------------------------------------------------------------------------------
  SC01                      10.62       0.00       0.00       0.00      10.50       0.00      10.50        3.47     0.51   0.989
  SC010                     10.62       0.00       0.00       0.00      10.45       0.00      10.45        1.23     0.17   0.984
  SC02                       8.97       0.00       0.00       0.00       8.89       0.00       8.89        2.02     0.34   0.991
  SC03                      10.05       0.00       0.00       0.00       9.98       0.00       9.98        1.80     0.34   0.993
  SC04                       8.97       0.00       0.00       0.00       8.82       0.00       8.82        0.61     0.09   0.983
  SC05                      10.62       0.00       0.00       0.00      10.49       0.00      10.49        1.64     0.23   0.988
  SC06                       9.92       0.00       0.00       0.00       9.57       0.00       9.57        3.12     0.38   0.965
  SC07                       8.97       0.00       0.00       0.00       8.82       0.00       8.82        0.42     0.06   0.983
  SC08                      10.05       0.00       0.00       0.00       9.87       0.00       9.87        2.76     0.48   0.982
  SC09                       9.92       0.00       0.00       0.00       9.70       0.00       9.70        0.67     0.09   0.978
  
  
  ******************
  Node Depth Summary
  ******************
  
  ---------------------------------------------------------------------------------
                                 Average  Maximum  Maximum  Time of Max    Reported
                                   Depth    Depth      HGL   Occurrence   Max Depth
  Node                 Type       Meters   Meters   Meters  days hr:min      Meters
  ---------------------------------------------------------------------------------
  CSO10                JUNCTION     0.14     0.39    30.39     0  03:50        0.39
  CSO7                 JUNCTION     0.13     1.03    35.03     0  03:40        0.87
  CSO8                 JUNCTION     0.26     1.90    33.90     0  03:35        1.90
  CSO9                 JUNCTION     0.14     0.72    40.72     0  03:40        0.71
  J1                   JUNCTION     0.08     0.16    34.16     0  03:31        0.16
  J10                  JUNCTION     0.11     0.27    29.27     0  03:35        0.27
  J11                  JUNCTION     0.11     0.29    31.29     0  03:35        0.29
  J12                  JUNCTION     0.37     0.71    26.71     0  11:16        0.70
  J13                  JUNCTION     0.07     0.16    29.16     0  03:36        0.16
  J14                  JUNCTION     0.12     0.19    20.19     0  11:42        0.19
  J15                  JUNCTION     0.19     0.31    15.31     0  03:54        0.31
  J16                  JUNCTION     0.08     0.18    30.18     0  03:31        0.17
  J17                  JUNCTION     0.07     0.14    20.14     0  06:03        0.14
  J18                  JUNCTION     0.07     0.15    29.15     0  03:51        0.15
  J19                  JUNCTION     0.15     0.17     8.17     0  09:46        0.17
  J2                   JUNCTION     0.07     0.08    25.08     0  05:05        0.08
  J3                   JUNCTION     0.11     0.16    18.16     0  07:06        0.16
  J4                   JUNCTION     0.13     0.72    33.72     0  03:40        0.59
  J5                   JUNCTION     0.06     0.14    32.14     0  03:43        0.14
  J6                   JUNCTION     0.06     0.11    25.11     0  06:06        0.11
  J7                   JUNCTION     0.09     0.19    39.19     0  03:46        0.19
  J8                   JUNCTION     0.11     0.23    36.23     0  03:55        0.23
  J9                   JUNCTION     0.10     0.16    29.16     0  04:25        0.16
  Out_to_WWTP          OUTFALL      0.15     0.17     6.17     0  11:02        0.17
  T1                   STORAGE      3.81     5.00    15.00     0  03:44        5.00
  T2                   STORAGE      2.14     3.58    24.58     0  05:50        3.58
  T3                   STORAGE      3.17     4.71    26.71     0  11:12        4.69
  T4                   STORAGE      2.05     3.62    30.62     0  05:39        3.62
  T5                   STORAGE      3.33     5.00    32.00     0  04:26        5.00
  T6                   STORAGE      3.08     5.00    36.00     0  03:58        5.00
  
  
  *******************
  Node Inflow Summary
  *******************
  
  -------------------------------------------------------------------------------------------------
                                  Maximum  Maximum                  Lateral       Total        Flow
                                  Lateral    Total  Time of Max      Inflow      Inflow     Balance
                                   Inflow   Inflow   Occurrence      Volume      Volume       Error
  Node                 Type           CMS      CMS  days hr:min    10^6 ltr    10^6 ltr     Percent
  -------------------------------------------------------------------------------------------------
  CSO10                JUNCTION     0.169    0.169     0  03:50        1.37        1.38      -0.240
  CSO7                 JUNCTION     0.067    0.067     0  03:40       0.715       0.718       0.164
  CSO8                 JUNCTION     0.476    0.476     0  03:35        3.02        3.03       0.228
  CSO9                 JUNCTION     0.092    0.092     0  03:45        0.87       0.872      -0.083
  J1                   JUNCTION     0.241    0.241     0  03:30        2.21        2.22      -0.305
  J10                  JUNCTION     0.341    0.804     0  03:33        2.19        5.24      -0.692
  J11                  JUNCTION     0.000    0.476     0  03:35           0        3.02      -0.775
  J12                  JUNCTION     0.000    0.885     0  03:38           0        8.95       6.008
  J13                  JUNCTION     0.350    0.350     0  03:35         2.5         2.5      -0.570
  J14                  JUNCTION     0.000    0.184     0  11:21           0        3.96      -1.374
  J15                  JUNCTION     0.000    0.868     0  03:52           0        13.4       0.107
  J16                  JUNCTION     0.513    0.513     0  03:30        4.03        4.04      -0.485
  J17                  JUNCTION     0.000    0.118     0  05:50           0         1.6      -1.788
  J18                  JUNCTION     0.000    0.169     0  03:50           0        1.38      -1.041
  J19                  JUNCTION     0.000    0.271     0  03:44           0        9.55       0.130
  J2                   JUNCTION     0.000    0.039     0  04:26           0         1.3       0.407
  J3                   JUNCTION     0.000    0.285     0  06:05           0        6.34       0.822
  J4                   JUNCTION     0.000    0.067     0  03:41           0       0.717      -0.537
  J5                   JUNCTION     0.093    0.160     0  03:40       0.739        1.46      -0.383
  J6                   JUNCTION     0.000    0.068     0  05:41           0        1.11       6.869
  J7                   JUNCTION     0.000    0.092     0  03:45           0       0.873      -1.070
  J8                   JUNCTION     0.397    0.487     0  03:55        4.08        4.98      -0.447
  J9                   JUNCTION     0.000    0.175     0  04:00           0        3.17       1.269
  Out_to_WWTP          OUTFALL      0.000    0.271     0  09:47           0        9.53       0.000
  T1                   STORAGE      0.000    0.849     0  03:54           0        13.4       6.402
  T2                   STORAGE      0.000    0.348     0  03:36           0        2.52      22.830
  T3                   STORAGE      0.000    0.874     0  03:40           0        8.45      22.286
  T4                   STORAGE      0.000    0.159     0  03:43           0        1.47      11.691
  T5                   STORAGE      0.000    0.240     0  03:31           0        2.22      22.944
  T6                   STORAGE      0.000    0.487     0  03:55           0           5      11.876
  
  
  **********************
  Node Surcharge Summary
  **********************
  
  Surcharging occurs when water rises above the top of the highest conduit.
  ---------------------------------------------------------------------
                                               Max. Height   Min. Depth
                                   Hours       Above Crown    Below Rim
  Node                 Type      Surcharged         Meters       Meters
  ---------------------------------------------------------------------
  CSO7                 JUNCTION        0.40          0.779        0.166
  CSO8                 JUNCTION        0.92          1.443        0.104
  CSO9                 JUNCTION        0.49          0.398        1.284
  J4                   JUNCTION        0.34          0.416        1.284
  
  
  *********************
  Node Flooding Summary
  *********************
  
  Flooding refers to all water that overflows a node, whether it ponds or not.
  --------------------------------------------------------------------------
                                                             Total   Maximum
                                 Maximum   Time of Max       Flood    Ponded
                        Hours       Rate    Occurrence      Volume     Depth
  Node                 Flooded       CMS   days hr:min    10^6 ltr    Meters
  --------------------------------------------------------------------------
  T1                      4.01     0.578      0  03:54       2.330     0.000
  T5                      1.10     0.099      0  04:26       0.095     0.000
  T6                      1.76     0.446      0  03:58       0.944     0.000
  
  
  **********************
  Storage Volume Summary
  **********************
  
  --------------------------------------------------------------------------------------------------
                         Average     Avg  Evap Exfil       Maximum     Max    Time of Max    Maximum
                          Volume    Pcnt  Pcnt  Pcnt        Volume    Pcnt     Occurrence    Outflow
  Storage Unit           1000 m3    Full  Loss  Loss       1000 m3    Full    days hr:min        CMS
  --------------------------------------------------------------------------------------------------
  T1                       0.534      76     0     0         0.700     100       0  03:44      0.271
  T2                       0.428      43     0     0         0.717      72       0  05:50      0.118
  T3                       1.651      63     0     0         2.449      94       0  11:12      0.410
  T4                       0.205      41     0     0         0.362      72       0  05:39      0.068
  T5                       0.333      67     0     0         0.500     100       0  04:26      0.039
  T6                       0.370      62     0     0         0.600     100       0  03:58      0.175
  
  
  ***********************
  Outfall Loading Summary
  ***********************
  
  -----------------------------------------------------------
                         Flow       Avg       Max       Total
                         Freq      Flow      Flow      Volume
  Outfall Node           Pcnt       CMS       CMS    10^6 ltr
  -----------------------------------------------------------
  Out_to_WWTP           98.78     0.224     0.271       9.534
  -----------------------------------------------------------
  System                98.78     0.224     0.271       9.534
  
  
  ********************
  Link Flow Summary
  ********************
  
  -----------------------------------------------------------------------------
                                 Maximum  Time of Max   Maximum    Max/    Max/
                                  |Flow|   Occurrence   |Veloc|    Full    Full
  Link                 Type          CMS  days hr:min     m/sec    Flow   Depth
  -----------------------------------------------------------------------------
  C1                   CONDUIT     0.039     0  05:32      1.06    0.01    0.12
  C10                  CONDUIT     0.487     0  03:55      2.35    0.05    0.58
  C11                  CONDUIT     0.274     0  07:06      2.07    0.01    0.11
  C12                  CONDUIT     0.174     0  04:25      1.25    0.01    0.21
  C13                  CONDUIT     0.874     0  03:40      1.36    0.05    0.68
  C14                  CONDUIT     0.271     0  09:47      2.08    0.02    0.09
  C15                  CONDUIT     0.476     0  03:35      3.35    1.51    0.82
  C16                  CONDUIT     0.474     0  03:35      1.75    0.05    0.14
  C17                  CONDUIT     0.803     0  03:35      2.95    0.04    0.19
  C18                  CONDUIT     0.348     0  03:36      1.07    0.01    0.54
  C19                  CONDUIT     0.117     0  06:03      1.51    0.04    0.22
  C2                   CONDUIT     0.067     0  06:07      1.64    0.08    0.23
  C20                  CONDUIT     0.511     0  03:31      2.46    0.02    0.12
  C21                  CONDUIT     0.169     0  03:50      1.76    0.97    0.61
  C22                  CONDUIT     0.169     0  03:51      1.45    0.08    0.29
  C23                  CONDUIT     0.849     0  03:54      1.31    0.09    0.60
  C3                   CONDUIT     0.186     0  11:18      2.25    0.07    0.17
  C4                   CONDUIT     0.240     0  03:31      1.20    0.06    0.58
  C5                   CONDUIT     0.067     0  03:41      1.31    1.15    1.00
  C6                   CONDUIT     0.067     0  03:41      1.28    1.07    0.73
  C7                   CONDUIT     0.159     0  03:43      0.97    0.04    0.57
  C8                   CONDUIT     0.092     0  03:45      1.74    1.16    0.80
  C9                   CONDUIT     0.092     0  03:46      1.18    0.31    0.42
  V1                   ORIFICE     0.271     0  03:44                      1.00
  V2                   ORIFICE     0.118     0  05:50                      1.00
  V3                   ORIFICE     0.184     0  11:21                      1.00
  V4                   ORIFICE     0.068     0  05:41                      1.00
  V5                   ORIFICE     0.039     0  04:26                      1.00
  V6                   ORIFICE     0.175     0  04:00                      1.00
  
  
  ***************************
  Flow Classification Summary
  ***************************
  
  -------------------------------------------------------------------------------------
                      Adjusted    ---------- Fraction of Time in Flow Class ---------- 
                       /Actual         Up    Down  Sub   Sup   Up    Down  Norm  Inlet 
  Conduit               Length    Dry  Dry   Dry   Crit  Crit  Crit  Crit  Ltd   Ctrl  
  -------------------------------------------------------------------------------------
  C1                      1.00   0.00  0.00  0.00  0.39  0.61  0.00  0.00  0.93  0.00
  C10                     1.00   0.00  0.00  0.00  0.95  0.05  0.00  0.00  0.96  0.00
  C11                     1.00   0.00  0.00  0.00  0.35  0.65  0.00  0.00  1.00  0.00
  C12                     1.00   0.00  0.00  0.00  0.96  0.03  0.00  0.00  0.98  0.00
  C13                     1.00   0.00  0.00  0.00  0.88  0.12  0.00  0.00  0.26  0.00
  C14                     1.00   0.01  0.00  0.00  0.01  0.98  0.00  0.00  0.35  0.00
  C15                     1.00   0.02  0.00  0.00  0.00  0.98  0.00  0.00  0.00  0.00
  C16                     1.00   0.00  0.02  0.00  0.34  0.64  0.00  0.00  0.31  0.00
  C17                     1.00   0.00  0.00  0.00  0.58  0.42  0.00  0.00  0.98  0.00
  C18                     1.00   0.00  0.00  0.00  0.92  0.08  0.00  0.00  0.95  0.00
  C19                     1.00   0.00  0.00  0.00  0.86  0.14  0.00  0.00  1.00  0.00
  C2                      1.00   0.00  0.00  0.00  0.54  0.45  0.00  0.00  0.99  0.00
  C20                     1.00   0.00  0.00  0.00  0.55  0.45  0.00  0.00  0.99  0.00
  C21                     1.00   0.00  0.00  0.00  0.00  1.00  0.00  0.00  0.00  0.00
  C22                     1.00   0.00  0.00  0.00  0.80  0.20  0.00  0.00  1.00  0.00
  C23                     1.00   0.00  0.00  0.00  0.92  0.08  0.00  0.00  0.94  0.00
  C3                      1.00   0.00  0.00  0.00  0.04  0.95  0.00  0.00  0.42  0.00
  C4                      1.00   0.00  0.00  0.00  0.94  0.06  0.00  0.00  0.95  0.00
  C5                      1.00   0.00  0.00  0.00  0.84  0.16  0.00  0.00  0.93  0.00
  C6                      1.00   0.00  0.00  0.00  0.10  0.90  0.00  0.00  0.00  0.00
  C7                      1.00   0.00  0.00  0.00  0.91  0.09  0.00  0.00  0.94  0.00
  C8                      1.00   0.00  0.00  0.00  0.11  0.89  0.00  0.00  0.00  0.00
  C9                      1.00   0.00  0.00  0.00  1.00  0.00  0.00  0.00  1.00  0.00
  
  
  *************************
  Conduit Surcharge Summary
  *************************
  
  ----------------------------------------------------------------------------
                                                           Hours        Hours 
                         --------- Hours Full --------   Above Full   Capacity
  Conduit                Both Ends  Upstream  Dnstream   Normal Flow   Limited
  ----------------------------------------------------------------------------
  C10                         0.01      0.01      9.73      0.01         0.01
  C13                         0.01      0.01      8.53      0.01         0.01
  C15                         0.01      0.92      0.01      0.96         0.01
  C18                         0.01      0.01      8.36      0.01         0.01
  C23                         0.01      0.01     10.15      0.01         0.01
  C4                          0.01      0.01     10.17      0.01         0.01
  C5                          0.40      0.40      0.52      0.46         0.37
  C6                          0.01      0.34      0.01      0.20         0.01
  C7                          0.01      0.01      8.66      0.01         0.01
  C8                          0.01      0.49      0.01      0.49         0.01
  

  Analysis begun on:  Sun Aug 21 16:49:46 2022
  Analysis ended on:  Sun Aug 21 16:49:48 2022
  Total elapsed time: 00:00:02