
  EPA STORM WATER MANAGEMENT MODEL - VERSION 5.1 (Build 5.3.0.dev0)
  --------------------------------------------------------------

  
  *********************************************************
  NOTE: The summary statistics displayed in this report are
  based on results found at every computational time step,  
  not just on results from each reporting time step.
  *********************************************************
  
  ****************
  Analysis Options
  ****************
  Flow Units ............... CMS
  Process Models:
    Rainfall/Runoff ........ YES
    RDII ................... NO
    Snowmelt ............... NO
    Groundwater ............ NO
    Flow Routing ........... YES
    Ponding Allowed ........ NO
    Water Quality .......... NO
  Infiltration Method ...... HORTON
  Flow Routing Method ...... DYNWAVE
  Surcharge Method ......... EXTRAN
  Starting Date ............ 03/23/2006 08:10:00
  Ending Date .............. 03/23/2006 14:30:00
  Antecedent Dry Days ...... 0.0
  Report Time Step ......... 00:05:00
  Wet Time Step ............ 00:05:00
  Dry Time Step ............ 01:00:00
  Routing Time Step ........ 30.00 sec
  Variable Time Step ....... YES
  Maximum Trials ........... 8
  Number of Threads ........ 1
  Head Tolerance ........... 0.001500 m
  
  
  **************************        Volume         Depth
  Runoff Quantity Continuity     hectare-m            mm
  **************************     ---------       -------
  Total Precipitation ......         0.947         5.258
  Evaporation Loss .........         0.000         0.000
  Infiltration Loss ........         0.000         0.000
  Surface Runoff ...........         0.905         5.020
  Final Storage ............         0.046         0.253
  Continuity Error (%) .....        -0.281
  
  
  **************************        Volume        Volume
  Flow Routing Continuity        hectare-m      10^6 ltr
  **************************     ---------     ---------
  Dry Weather Inflow .......         0.333         3.329
  Wet Weather Inflow .......         0.904         9.039
  Groundwater Inflow .......         0.000         0.000
  RDII Inflow ..............         0.000         0.000
  External Inflow ..........         0.000         0.000
  External Outflow .........         0.341         3.413
  Flooding Loss ............         0.142         1.416
  Evaporation Loss .........         0.000         0.000
  Exfiltration Loss ........         0.000         0.000
  Initial Stored Volume ....         0.000         0.000
  Final Stored Volume ......         0.577         5.774
  Continuity Error (%) .....        14.275
  
  
  *************************
  Highest Continuity Errors
  *************************
  Node T5 (30.91%)
  Node T2 (29.27%)
  Node T3 (25.02%)
  Node T4 (24.11%)
  Node T6 (20.25%)
  
  
  ***************************
  Time-Step Critical Elements
  ***************************
  Link C15 (14.65%)
  Link C8 (13.81%)
  Link C21 (6.48%)
  Link C5 (2.76%)
  
  
  ********************************
  Highest Flow Instability Indexes
  ********************************
  Link C12 (8)
  Link V3 (8)
  Link C11 (7)
  Link V6 (7)
  Link C19 (7)
  
  
  *************************
  Routing Time Step Summary
  *************************
  Minimum Time Step           :     0.25 sec
  Average Time Step           :    27.27 sec
  Maximum Time Step           :    30.00 sec
  Percent in Steady State     :     3.95
  Average Iterations per Step :     2.94
  Percent Not Converging      :     6.10
  
  
  ***************************
  Subcatchment Runoff Summary
  ***************************
  
  ------------------------------------------------------------------------------------------------------------------------------
                            Total      Total      Total      Total     Imperv       Perv      Total       Total     Peak  Runoff
                           Precip      Runon       Evap      Infil     Runoff     Runoff     Runoff      Runoff   Runoff   Coeff
  Subcatchment                 mm         mm         mm         mm         mm         mm         mm    10^6 ltr      CMS
  ------------------------------------------------------------------------------------------------------------------------------
  SC01                       4.91       0.00       0.00       0.00       4.77       0.00       4.77        1.57     0.53   0.971
  SC010                      4.91       0.00       0.00       0.00       4.70       0.00       4.70        0.55     0.16   0.957
  SC02                       7.09       0.00       0.00       0.00       6.93       0.00       6.93        1.58     0.35   0.977
  SC03                       2.66       0.00       0.00       0.00       2.58       0.00       2.58        0.46     0.09   0.969
  SC04                       7.09       0.00       0.00       0.00       6.66       0.00       6.66        0.46     0.09   0.939
  SC05                       4.91       0.00       0.00       0.00       4.75       0.00       4.75        0.74     0.24   0.968
  SC06                       7.22       0.00       0.00       0.00       6.72       0.00       6.72        2.19     0.48   0.931
  SC07                       7.09       0.00       0.00       0.00       6.66       0.00       6.66        0.32     0.06   0.939
  SC08                       2.66       0.00       0.00       0.00       2.48       0.00       2.48        0.70     0.12   0.933
  SC09                       7.22       0.00       0.00       0.00       6.95       0.00       6.95        0.48     0.11   0.963
  
  
  ******************
  Node Depth Summary
  ******************
  
  ---------------------------------------------------------------------------------
                                 Average  Maximum  Maximum  Time of Max    Reported
                                   Depth    Depth      HGL   Occurrence   Max Depth
  Node                 Type       Meters   Meters   Meters  days hr:min      Meters
  ---------------------------------------------------------------------------------
  CSO10                JUNCTION     0.13     0.38    30.38     0  04:11        0.36
  CSO7                 JUNCTION     0.21     1.20    35.20     0  03:55        1.20
  CSO8                 JUNCTION     0.11     0.21    32.21     0  03:40        0.21
  CSO9                 JUNCTION     0.26     1.76    41.76     0  03:50        1.70
  J1                   JUNCTION     0.08     0.17    34.17     0  04:10        0.17
  J10                  JUNCTION     0.09     0.15    29.15     0  03:41        0.15
  J11                  JUNCTION     0.09     0.16    31.16     0  03:41        0.16
  J12                  JUNCTION     0.12     0.20    26.20     0  03:41        0.20
  J13                  JUNCTION     0.08     0.16    29.16     0  03:52        0.16
  J14                  JUNCTION     0.09     0.15    20.15     0  05:27        0.15
  J15                  JUNCTION     0.16     0.30    15.30     0  04:15        0.30
  J16                  JUNCTION     0.07     0.18    30.18     0  04:10        0.18
  J17                  JUNCTION     0.06     0.14    20.14     0  04:43        0.14
  J18                  JUNCTION     0.06     0.15    29.15     0  04:12        0.14
  J19                  JUNCTION     0.12     0.17     8.17     0  04:25        0.17
  J2                   JUNCTION     0.05     0.07    25.07     0  05:20        0.07
  J3                   JUNCTION     0.09     0.15    18.15     0  06:01        0.14
  J4                   JUNCTION     0.18     0.84    33.84     0  03:55        0.84
  J5                   JUNCTION     0.07     0.14    32.14     0  04:00        0.14
  J6                   JUNCTION     0.06     0.11    25.11     0  04:59        0.11
  J7                   JUNCTION     0.10     0.22    39.22     0  03:55        0.22
  J8                   JUNCTION     0.13     0.26    36.26     0  03:55        0.26
  J9                   JUNCTION     0.09     0.17    29.17     0  05:04        0.17
  Out_to_WWTP          OUTFALL      0.12     0.17     6.17     0  05:18        0.17
  T1                   STORAGE      2.26     5.00    15.00     0  04:23        5.00
  T2                   STORAGE      1.54     3.54    24.54     0  05:30        3.54
  T3                   STORAGE      0.97     2.17    24.17     0  06:20        2.17
  T4                   STORAGE      1.60     3.80    30.80     0  05:25        3.80
  T5                   STORAGE      1.78     3.87    30.87     0  05:18        3.87
  T6                   STORAGE      2.53     5.00    36.00     0  03:52        5.00
  
  
  *******************
  Node Inflow Summary
  *******************
  
  -------------------------------------------------------------------------------------------------
                                  Maximum  Maximum                  Lateral       Total        Flow
                                  Lateral    Total  Time of Max      Inflow      Inflow     Balance
                                   Inflow   Inflow   Occurrence      Volume      Volume       Error
  Node                 Type           CMS      CMS  days hr:min    10^6 ltr    10^6 ltr     Percent
  -------------------------------------------------------------------------------------------------
  CSO10                JUNCTION     0.170    0.170     0  04:10       0.669        0.67       0.061
  CSO7                 JUNCTION     0.074    0.074     0  04:00       0.561       0.562       0.102
  CSO8                 JUNCTION     0.133    0.133     0  03:40        0.93       0.931       0.041
  CSO9                 JUNCTION     0.120    0.120     0  03:50       0.645       0.645       0.052
  J1                   JUNCTION     0.265    0.265     0  04:10        1.22        1.22       0.093
  J10                  JUNCTION     0.105    0.233     0  03:40       0.789        1.71       0.353
  J11                  JUNCTION     0.000    0.133     0  03:40           0       0.931       0.669
  J12                  JUNCTION     0.000    0.372     0  03:40           0        2.93       0.655
  J13                  JUNCTION     0.372    0.372     0  03:50        1.97        1.97      -0.176
  J14                  JUNCTION     0.000    0.123     0  05:56           0        1.05      -2.175
  J15                  JUNCTION     0.000    0.870     0  04:12           0        5.41       2.177
  J16                  JUNCTION     0.550    0.550     0  04:10        2.04        2.04       0.004
  J17                  JUNCTION     0.000    0.118     0  05:30           0       0.746      11.656
  J18                  JUNCTION     0.000    0.167     0  04:11           0       0.669       0.151
  J19                  JUNCTION     0.000    0.271     0  04:24           0        3.43       0.362
  J2                   JUNCTION     0.000    0.034     0  05:19           0       0.465       1.087
  J3                   JUNCTION     0.000    0.226     0  05:58           0        2.06       1.498
  J4                   JUNCTION     0.000    0.072     0  03:54           0        0.56       0.649
  J5                   JUNCTION     0.094    0.164     0  04:00       0.567        1.12       0.187
  J6                   JUNCTION     0.000    0.069     0  05:25           0       0.495      -5.416
  J7                   JUNCTION     0.000    0.120     0  03:50           0       0.645       0.547
  J8                   JUNCTION     0.521    0.639     0  03:55        2.98        3.62       0.220
  J9                   JUNCTION     0.000    0.175     0  04:15           0        1.32       7.326
  Out_to_WWTP          OUTFALL      0.000    0.271     0  04:25           0        3.41       0.000
  T1                   STORAGE      0.000    0.819     0  04:15           0         5.3      17.181
  T2                   STORAGE      0.000    0.372     0  03:52           0        1.98      41.374
  T3                   STORAGE      0.000    0.345     0  03:41           0        2.91      33.366
  T4                   STORAGE      0.000    0.164     0  04:00           0        1.12      31.766
  T5                   STORAGE      0.000    0.261     0  04:11           0        1.22      44.735
  T6                   STORAGE      0.000    0.638     0  03:55           0        3.62      25.395
  
  
  **********************
  Node Surcharge Summary
  **********************
  
  Surcharging occurs when water rises above the top of the highest conduit.
  ---------------------------------------------------------------------
                                               Max. Height   Min. Depth
                                   Hours       Above Crown    Below Rim
  Node                 Type      Surcharged         Meters       Meters
  ---------------------------------------------------------------------
  CSO7                 JUNCTION        0.62          0.945        0.000
  CSO9                 JUNCTION        0.91          1.442        0.240
  J4                   JUNCTION        0.58          0.538        1.162
  
  
  *********************
  Node Flooding Summary
  *********************
  
  Flooding refers to all water that overflows a node, whether it ponds or not.
  --------------------------------------------------------------------------
                                                             Total   Maximum
                                 Maximum   Time of Max       Flood    Ponded
                        Hours       Rate    Occurrence      Volume     Depth
  Node                 Flooded       CMS   days hr:min    10^6 ltr    Meters
  --------------------------------------------------------------------------
  CSO7                    0.27     0.004      0  03:55       0.002     0.000
  T1                      0.84     0.445      0  04:23       0.413     0.000
  T6                      1.02     0.607      0  03:55       1.000     0.000
  
  
  **********************
  Storage Volume Summary
  **********************
  
  --------------------------------------------------------------------------------------------------
                         Average     Avg  Evap Exfil       Maximum     Max    Time of Max    Maximum
                          Volume    Pcnt  Pcnt  Pcnt        Volume    Pcnt     Occurrence    Outflow
  Storage Unit           1000 m3    Full  Loss  Loss       1000 m3    Full    days hr:min        CMS
  --------------------------------------------------------------------------------------------------
  T1                       0.316      45     0     0         0.700     100       0  04:23      0.271
  T2                       0.308      31     0     0         0.708      71       0  05:30      0.118
  T3                       0.505      19     0     0         1.131      43       0  06:20      0.123
  T4                       0.160      32     0     0         0.380      76       0  05:25      0.069
  T5                       0.178      36     0     0         0.387      77       0  05:18      0.034
  T6                       0.304      51     0     0         0.600     100       0  03:52      0.175
  
  
  ***********************
  Outfall Loading Summary
  ***********************
  
  -----------------------------------------------------------
                         Flow       Avg       Max       Total
                         Freq      Flow      Flow      Volume
  Outfall Node           Pcnt       CMS       CMS    10^6 ltr
  -----------------------------------------------------------
  Out_to_WWTP           98.68     0.154     0.271       3.413
  -----------------------------------------------------------
  System                98.68     0.154     0.271       3.413
  
  
  ********************
  Link Flow Summary
  ********************
  
  -----------------------------------------------------------------------------
                                 Maximum  Time of Max   Maximum    Max/    Max/
                                  |Flow|   Occurrence   |Veloc|    Full    Full
  Link                 Type          CMS  days hr:min     m/sec    Flow   Depth
  -----------------------------------------------------------------------------
  C1                   CONDUIT     0.034     0  05:21      1.03    0.01    0.11
  C10                  CONDUIT     0.638     0  03:55      1.66    0.07    0.59
  C11                  CONDUIT     0.217     0  06:01      1.84    0.01    0.11
  C12                  CONDUIT     0.174     0  05:05      1.54    0.01    0.09
  C13                  CONDUIT     0.345     0  03:41      1.57    0.02    0.54
  C14                  CONDUIT     0.271     0  04:25      2.08    0.02    0.09
  C15                  CONDUIT     0.133     0  03:40      2.16    0.42    0.41
  C16                  CONDUIT     0.131     0  03:42      1.17    0.01    0.08
  C17                  CONDUIT     0.231     0  03:42      1.86    0.01    0.09
  C18                  CONDUIT     0.372     0  03:52      3.36    0.01    0.54
  C19                  CONDUIT     0.117     0  04:43      1.55    0.04    0.22
  C2                   CONDUIT     0.069     0  04:59      1.84    0.08    0.22
  C20                  CONDUIT     0.542     0  04:11      2.69    0.02    0.12
  C21                  CONDUIT     0.167     0  04:11      1.76    0.96    0.60
  C22                  CONDUIT     0.162     0  04:12      1.44    0.07    0.28
  C23                  CONDUIT     0.819     0  04:15      1.24    0.09    0.60
  C3                   CONDUIT     0.124     0  05:59      1.82    0.05    0.15
  C4                   CONDUIT     0.261     0  04:11      3.06    0.06    0.59
  C5                   CONDUIT     0.072     0  03:54      1.40    1.23    1.00
  C6                   CONDUIT     0.070     0  03:59      1.29    1.12    0.73
  C7                   CONDUIT     0.164     0  04:00      1.44    0.04    0.57
  C8                   CONDUIT     0.120     0  03:50      1.69    1.51    0.85
  C9                   CONDUIT     0.118     0  03:55      1.26    0.40    0.48
  V1                   ORIFICE     0.271     0  04:24                      1.00
  V2                   ORIFICE     0.118     0  05:30                      1.00
  V3                   ORIFICE     0.123     0  05:56                      1.00
  V4                   ORIFICE     0.069     0  05:25                      1.00
  V5                   ORIFICE     0.034     0  05:19                      1.00
  V6                   ORIFICE     0.175     0  04:15                      1.00
  
  
  ***************************
  Flow Classification Summary
  ***************************
  
  -------------------------------------------------------------------------------------
                      Adjusted    ---------- Fraction of Time in Flow Class ---------- 
                       /Actual         Up    Down  Sub   Sup   Up    Down  Norm  Inlet 
  Conduit               Length    Dry  Dry   Dry   Crit  Crit  Crit  Crit  Ltd   Ctrl  
  -------------------------------------------------------------------------------------
  C1                      1.00   0.00  0.00  0.00  0.32  0.68  0.00  0.00  0.93  0.00
  C10                     1.00   0.00  0.00  0.00  0.94  0.06  0.00  0.00  0.97  0.00
  C11                     1.00   0.00  0.00  0.00  0.42  0.58  0.00  0.00  1.00  0.00
  C12                     1.00   0.00  0.00  0.00  0.67  0.32  0.00  0.00  0.88  0.00
  C13                     1.00   0.00  0.00  0.00  0.88  0.12  0.00  0.00  0.89  0.00
  C14                     1.00   0.01  0.01  0.00  0.01  0.98  0.00  0.00  0.34  0.00
  C15                     1.00   0.00  0.00  0.00  0.00  1.00  0.00  0.00  0.00  0.00
  C16                     1.00   0.00  0.00  0.00  0.46  0.54  0.00  0.00  0.40  0.00
  C17                     1.00   0.00  0.00  0.00  0.22  0.78  0.00  0.00  0.96  0.00
  C18                     1.00   0.00  0.00  0.00  0.91  0.09  0.00  0.00  0.97  0.00
  C19                     1.00   0.00  0.00  0.00  0.87  0.13  0.00  0.00  1.00  0.00
  C2                      1.00   0.00  0.00  0.00  0.37  0.63  0.00  0.00  0.98  0.00
  C20                     1.00   0.00  0.00  0.00  0.27  0.73  0.00  0.00  0.98  0.00
  C21                     1.00   0.00  0.00  0.00  0.00  1.00  0.00  0.00  0.00  0.00
  C22                     1.00   0.00  0.00  0.00  0.92  0.07  0.00  0.00  1.00  0.00
  C23                     1.00   0.00  0.00  0.00  0.88  0.12  0.00  0.00  0.93  0.00
  C3                      1.00   0.00  0.01  0.00  0.06  0.94  0.00  0.00  0.55  0.00
  C4                      1.00   0.00  0.00  0.00  0.95  0.05  0.00  0.00  0.98  0.00
  C5                      1.00   0.00  0.00  0.00  0.89  0.11  0.00  0.00  0.88  0.00
  C6                      1.00   0.00  0.00  0.00  0.15  0.85  0.00  0.00  0.00  0.00
  C7                      1.00   0.00  0.00  0.00  0.94  0.06  0.00  0.00  0.96  0.00
  C8                      1.00   0.00  0.00  0.00  0.21  0.79  0.00  0.00  0.00  0.00
  C9                      1.00   0.00  0.00  0.00  1.00  0.00  0.00  0.00  1.00  0.00
  
  
  *************************
  Conduit Surcharge Summary
  *************************
  
  ----------------------------------------------------------------------------
                                                           Hours        Hours 
                         --------- Hours Full --------   Above Full   Capacity
  Conduit                Both Ends  Upstream  Dnstream   Normal Flow   Limited
  ----------------------------------------------------------------------------
  C10                         0.01      0.01      3.08      0.01         0.01
  C13                         0.01      0.01      1.02      0.01         0.01
  C18                         0.01      0.01      2.44      0.01         0.01
  C23                         0.01      0.01      3.21      0.01         0.01
  C4                          0.01      0.01      3.38      0.01         0.01
  C5                          0.58      0.61      0.69      0.64         0.57
  C6                          0.01      0.58      0.01      0.47         0.01
  C7                          0.01      0.01      3.04      0.01         0.01
  C8                          0.01      0.91      0.01      0.91         0.01
  

  Analysis begun on:  Sun Aug 21 16:50:04 2022
  Analysis ended on:  Sun Aug 21 16:50:05 2022
  Total elapsed time: 00:00:01