
  EPA STORM WATER MANAGEMENT MODEL - VERSION 5.1 (Build 5.3.0.dev0)
  --------------------------------------------------------------

  
  *********************************************************
  NOTE: The summary statistics displayed in this report are
  based on results found at every computational time step,  
  not just on results from each reporting time step.
  *********************************************************
  
  ****************
  Analysis Options
  ****************
  Flow Units ............... CMS
  Process Models:
    Rainfall/Runoff ........ YES
    RDII ................... NO
    Snowmelt ............... NO
    Groundwater ............ NO
    Flow Routing ........... YES
    Ponding Allowed ........ NO
    Water Quality .......... NO
  Infiltration Method ...... HORTON
  Flow Routing Method ...... DYNWAVE
  Surcharge Method ......... EXTRAN
  Starting Date ............ 03/01/2000 16:00:00
  Ending Date .............. 03/02/2000 10:35:00
  Antecedent Dry Days ...... 0.0
  Report Time Step ......... 00:05:00
  Wet Time Step ............ 00:05:00
  Dry Time Step ............ 01:00:00
  Routing Time Step ........ 30.00 sec
  Variable Time Step ....... YES
  Maximum Trials ........... 8
  Number of Threads ........ 1
  Head Tolerance ........... 0.001500 m
  
  
  **************************        Volume         Depth
  Runoff Quantity Continuity     hectare-m            mm
  **************************     ---------       -------
  Total Precipitation ......         1.414         7.849
  Evaporation Loss .........         0.000         0.000
  Infiltration Loss ........         0.000         0.000
  Surface Runoff ...........         1.399         7.762
  Final Storage ............         0.017         0.093
  Continuity Error (%) .....        -0.074
  
  
  **************************        Volume        Volume
  Flow Routing Continuity        hectare-m      10^6 ltr
  **************************     ---------     ---------
  Dry Weather Inflow .......         0.475         4.752
  Wet Weather Inflow .......         1.399        13.988
  Groundwater Inflow .......         0.000         0.000
  RDII Inflow ..............         0.000         0.000
  External Inflow ..........         0.000         0.000
  External Outflow .........         1.276        12.759
  Flooding Loss ............         0.117         1.171
  Evaporation Loss .........         0.000         0.000
  Exfiltration Loss ........         0.000         0.000
  Initial Stored Volume ....         0.000         0.000
  Final Stored Volume ......         0.426         4.259
  Continuity Error (%) .....         2.945
  
  
  *************************
  Highest Continuity Errors
  *************************
  Node T3 (11.42%)
  Node T5 (7.67%)
  Node T2 (5.47%)
  Node T6 (4.93%)
  Node T4 (3.96%)
  
  
  ***************************
  Time-Step Critical Elements
  ***************************
  Link C15 (31.54%)
  
  
  ********************************
  Highest Flow Instability Indexes
  ********************************
  Link C3 (9)
  Link C11 (8)
  Link C13 (8)
  Link C12 (7)
  Link C23 (7)
  
  
  *************************
  Routing Time Step Summary
  *************************
  Minimum Time Step           :     0.02 sec
  Average Time Step           :    27.73 sec
  Maximum Time Step           :    30.00 sec
  Percent in Steady State     :     2.30
  Average Iterations per Step :     2.27
  Percent Not Converging      :     0.08
  
  
  ***************************
  Subcatchment Runoff Summary
  ***************************
  
  ------------------------------------------------------------------------------------------------------------------------------
                            Total      Total      Total      Total     Imperv       Perv      Total       Total     Peak  Runoff
                           Precip      Runon       Evap      Infil     Runoff     Runoff     Runoff      Runoff   Runoff   Coeff
  Subcatchment                 mm         mm         mm         mm         mm         mm         mm    10^6 ltr      CMS
  ------------------------------------------------------------------------------------------------------------------------------
  SC01                       5.72       0.00       0.00       0.00       5.65       0.00       5.65        1.87     0.20   0.988
  SC010                      5.72       0.00       0.00       0.00       5.64       0.00       5.64        0.66     0.07   0.986
  SC02                       7.61       0.00       0.00       0.00       7.54       0.00       7.54        1.71     0.20   0.990
  SC03                       8.70       0.00       0.00       0.00       8.65       0.00       8.65        1.56     0.22   0.995
  SC04                       7.61       0.00       0.00       0.00       7.48       0.00       7.48        0.52     0.05   0.983
  SC05                       5.72       0.00       0.00       0.00       5.65       0.00       5.65        0.88     0.10   0.988
  SC06                      10.32       0.00       0.00       0.00      10.17       0.00      10.17        3.31     0.47   0.986
  SC07                       7.61       0.00       0.00       0.00       7.48       0.00       7.48        0.36     0.04   0.984
  SC08                       8.70       0.00       0.00       0.00       8.63       0.00       8.63        2.42     0.32   0.992
  SC09                      10.32       0.00       0.00       0.00      10.22       0.00      10.22        0.70     0.11   0.990
  
  
  ******************
  Node Depth Summary
  ******************
  
  ---------------------------------------------------------------------------------
                                 Average  Maximum  Maximum  Time of Max    Reported
                                   Depth    Depth      HGL   Occurrence   Max Depth
  Node                 Type       Meters   Meters   Meters  days hr:min      Meters
  ---------------------------------------------------------------------------------
  CSO10                JUNCTION     0.08     0.22    30.22     0  04:50        0.22
  CSO7                 JUNCTION     0.07     0.16    34.16     0  04:50        0.16
  CSO8                 JUNCTION     0.10     0.39    32.39     0  04:35        0.39
  CSO9                 JUNCTION     0.14     1.59    41.59     0  04:35        1.59
  J1                   JUNCTION     0.05     0.11    34.11     0  04:50        0.11
  J10                  JUNCTION     0.08     0.22    29.22     0  04:38        0.22
  J11                  JUNCTION     0.08     0.24    31.24     0  04:38        0.24
  J12                  JUNCTION     0.16     0.42    26.42     0  09:40        0.42
  J13                  JUNCTION     0.05     0.13    29.13     0  04:50        0.13
  J14                  JUNCTION     0.12     0.19    20.19     0  11:02        0.18
  J15                  JUNCTION     0.15     0.23    15.23     0  04:51        0.23
  J16                  JUNCTION     0.05     0.12    30.12     0  04:50        0.12
  J17                  JUNCTION     0.07     0.13    20.13     0  07:45        0.13
  J18                  JUNCTION     0.04     0.10    29.10     0  04:51        0.10
  J19                  JUNCTION     0.14     0.17     8.17     0  07:38        0.17
  J2                   JUNCTION     0.06     0.07    25.07     0  07:50        0.07
  J3                   JUNCTION     0.11     0.15    18.15     0  10:35        0.15
  J4                   JUNCTION     0.09     0.20    33.20     0  04:55        0.20
  J5                   JUNCTION     0.05     0.11    32.11     0  04:54        0.11
  J6                   JUNCTION     0.06     0.10    25.10     0  08:20        0.10
  J7                   JUNCTION     0.07     0.22    39.22     0  04:37        0.22
  J8                   JUNCTION     0.09     0.25    36.25     0  04:37        0.25
  J9                   JUNCTION     0.09     0.16    29.16     0  05:41        0.16
  Out_to_WWTP          OUTFALL      0.14     0.17     6.17     0  08:11        0.17
  T1                   STORAGE      2.93     5.00    15.00     0  07:38        5.00
  T2                   STORAGE      1.30     2.68    23.68     0  08:15        2.68
  T3                   STORAGE      2.88     4.42    26.42     0  09:35        4.42
  T4                   STORAGE      1.21     2.43    29.43     0  08:15        2.43
  T5                   STORAGE      1.47     2.70    29.70     0  07:47        2.70
  T6                   STORAGE      2.90     5.00    36.00     0  04:45        5.00
  
  
  *******************
  Node Inflow Summary
  *******************
  
  -------------------------------------------------------------------------------------------------
                                  Maximum  Maximum                  Lateral       Total        Flow
                                  Lateral    Total  Time of Max      Inflow      Inflow     Balance
                                   Inflow   Inflow   Occurrence      Volume      Volume       Error
  Node                 Type           CMS      CMS  days hr:min    10^6 ltr    10^6 ltr     Percent
  -------------------------------------------------------------------------------------------------
  CSO10                JUNCTION     0.073    0.073     0  04:50       0.834       0.835       0.050
  CSO7                 JUNCTION     0.044    0.044     0  04:50       0.713       0.713       0.076
  CSO8                 JUNCTION     0.316    0.316     0  04:35        2.66        2.66       0.003
  CSO9                 JUNCTION     0.116    0.116     0  04:35       0.946       0.947       0.048
  J1                   JUNCTION     0.108    0.108     0  04:50        1.57        1.57       0.078
  J10                  JUNCTION     0.233    0.536     0  04:36        2.03        4.69       0.053
  J11                  JUNCTION     0.000    0.315     0  04:35           0        2.66       0.198
  J12                  JUNCTION     0.000    0.654     0  04:35           0        8.66       1.376
  J13                  JUNCTION     0.213    0.213     0  04:50        2.29        2.29      -0.143
  J14                  JUNCTION     0.000    0.178     0  09:45           0        5.83       0.522
  J15                  JUNCTION     0.000    0.470     0  04:50           0        13.8       0.166
  J16                  JUNCTION     0.216    0.216     0  04:35        2.55        2.55       0.022
  J17                  JUNCTION     0.000    0.102     0  08:15           0        2.04       0.014
  J18                  JUNCTION     0.000    0.073     0  04:50           0       0.834       0.063
  J19                  JUNCTION     0.000    0.271     0  07:38           0        12.8       0.080
  J2                   JUNCTION     0.000    0.029     0  07:47           0        1.33       0.240
  J3                   JUNCTION     0.000    0.261     0  08:19           0        8.34       0.143
  J4                   JUNCTION     0.000    0.044     0  04:50           0       0.713       0.517
  J5                   JUNCTION     0.057    0.099     0  04:53       0.674        1.38       0.117
  J6                   JUNCTION     0.000    0.055     0  08:15           0        1.23       1.992
  J7                   JUNCTION     0.000    0.116     0  04:35           0       0.946       0.305
  J8                   JUNCTION     0.490    0.602     0  04:36        4.47        5.42       0.102
  J9                   JUNCTION     0.000    0.175     0  04:50           0        3.87      -1.108
  Out_to_WWTP          OUTFALL      0.000    0.271     0  07:43           0        12.8       0.000
  T1                   STORAGE      0.000    0.455     0  04:51           0        13.7       3.616
  T2                   STORAGE      0.000    0.212     0  04:50           0         2.3       5.784
  T3                   STORAGE      0.000    0.619     0  04:36           0        8.54      12.892
  T4                   STORAGE      0.000    0.099     0  04:54           0        1.38       4.121
  T5                   STORAGE      0.000    0.108     0  04:50           0        1.57       8.304
  T6                   STORAGE      0.000    0.601     0  04:38           0        5.41       5.182
  
  
  **********************
  Node Surcharge Summary
  **********************
  
  Surcharging occurs when water rises above the top of the highest conduit.
  ---------------------------------------------------------------------
                                               Max. Height   Min. Depth
                                   Hours       Above Crown    Below Rim
  Node                 Type      Surcharged         Meters       Meters
  ---------------------------------------------------------------------
  CSO9                 JUNCTION        0.75          1.272        0.410
  
  
  *********************
  Node Flooding Summary
  *********************
  
  Flooding refers to all water that overflows a node, whether it ponds or not.
  --------------------------------------------------------------------------
                                                             Total   Maximum
                                 Maximum   Time of Max       Flood    Ponded
                        Hours       Rate    Occurrence      Volume     Depth
  Node                 Flooded       CMS   days hr:min    10^6 ltr    Meters
  --------------------------------------------------------------------------
  T1                      0.39     0.097      0  07:44       0.083     0.000
  T6                      1.96     0.546      0  04:45       1.086     0.000
  
  
  **********************
  Storage Volume Summary
  **********************
  
  --------------------------------------------------------------------------------------------------
                         Average     Avg  Evap Exfil       Maximum     Max    Time of Max    Maximum
                          Volume    Pcnt  Pcnt  Pcnt        Volume    Pcnt     Occurrence    Outflow
  Storage Unit           1000 m3    Full  Loss  Loss       1000 m3    Full    days hr:min        CMS
  --------------------------------------------------------------------------------------------------
  T1                       0.410      59     0     0         0.700     100       0  07:38      0.271
  T2                       0.259      26     0     0         0.536      54       0  08:15      0.102
  T3                       1.499      58     0     0         2.298      88       0  09:35      0.235
  T4                       0.121      24     0     0         0.243      49       0  08:15      0.055
  T5                       0.147      29     0     0         0.270      54       0  07:47      0.029
  T6                       0.348      58     0     0         0.600     100       0  04:45      0.175
  
  
  ***********************
  Outfall Loading Summary
  ***********************
  
  -----------------------------------------------------------
                         Flow       Avg       Max       Total
                         Freq      Flow      Flow      Volume
  Outfall Node           Pcnt       CMS       CMS    10^6 ltr
  -----------------------------------------------------------
  Out_to_WWTP           99.54     0.191     0.271      12.759
  -----------------------------------------------------------
  System                99.54     0.191     0.271      12.759
  
  
  ********************
  Link Flow Summary
  ********************
  
  -----------------------------------------------------------------------------
                                 Maximum  Time of Max   Maximum    Max/    Max/
                                  |Flow|   Occurrence   |Veloc|    Full    Full
  Link                 Type          CMS  days hr:min     m/sec    Flow   Depth
  -----------------------------------------------------------------------------
  C1                   CONDUIT     0.029     0  07:50      0.92    0.01    0.11
  C10                  CONDUIT     0.601     0  04:38      1.59    0.06    0.58
  C11                  CONDUIT     0.242     0  10:35      1.96    0.01    0.09
  C12                  CONDUIT     0.174     0  05:42      1.51    0.01    0.14
  C13                  CONDUIT     0.619     0  04:36      1.35    0.04    0.60
  C14                  CONDUIT     0.271     0  07:43      2.08    0.02    0.09
  C15                  CONDUIT     0.315     0  04:35      2.65    1.00    0.69
  C16                  CONDUIT     0.311     0  04:38      1.53    0.03    0.12
  C17                  CONDUIT     0.533     0  04:38      2.49    0.03    0.12
  C18                  CONDUIT     0.212     0  04:50      4.72    0.01    0.52
  C19                  CONDUIT     0.100     0  07:45      1.37    0.03    0.17
  C2                   CONDUIT     0.054     0  08:20      1.56    0.06    0.21
  C20                  CONDUIT     0.215     0  04:50      3.71    0.01    0.09
  C21                  CONDUIT     0.073     0  04:50      1.49    0.42    0.36
  C22                  CONDUIT     0.073     0  04:51      1.00    0.03    0.20
  C23                  CONDUIT     0.455     0  04:51      1.19    0.05    0.58
  C3                   CONDUIT     0.180     0  08:18      2.28    0.07    0.17
  C4                   CONDUIT     0.108     0  04:50      4.05    0.03    0.56
  C5                   CONDUIT     0.044     0  04:50      1.16    0.74    0.70
  C6                   CONDUIT     0.043     0  04:55      1.20    0.68    0.51
  C7                   CONDUIT     0.099     0  04:54      1.38    0.02    0.55
  C8                   CONDUIT     0.116     0  04:35      1.64    1.46    0.84
  C9                   CONDUIT     0.114     0  04:37      1.26    0.39    0.47
  V1                   ORIFICE     0.271     0  07:38                      1.00
  V2                   ORIFICE     0.102     0  08:15                      1.00
  V3                   ORIFICE     0.178     0  09:45                      1.00
  V4                   ORIFICE     0.055     0  08:15                      1.00
  V5                   ORIFICE     0.029     0  07:47                      1.00
  V6                   ORIFICE     0.175     0  04:50                      1.00
  
  
  ***************************
  Flow Classification Summary
  ***************************
  
  -------------------------------------------------------------------------------------
                      Adjusted    ---------- Fraction of Time in Flow Class ---------- 
                       /Actual         Up    Down  Sub   Sup   Up    Down  Norm  Inlet 
  Conduit               Length    Dry  Dry   Dry   Crit  Crit  Crit  Crit  Ltd   Ctrl  
  -------------------------------------------------------------------------------------
  C1                      1.00   0.00  0.00  0.00  0.77  0.23  0.00  0.00  0.97  0.00
  C10                     1.00   0.00  0.00  0.00  0.98  0.02  0.00  0.00  0.99  0.00
  C11                     1.00   0.00  0.00  0.00  0.11  0.89  0.00  0.00  1.00  0.00
  C12                     1.00   0.00  0.00  0.00  0.64  0.36  0.00  0.00  0.85  0.00
  C13                     1.00   0.00  0.00  0.00  0.95  0.05  0.00  0.00  0.68  0.00
  C14                     1.00   0.00  0.00  0.00  0.00  0.99  0.00  0.00  0.59  0.00
  C15                     1.00   0.00  0.02  0.00  0.03  0.95  0.00  0.00  0.06  0.00
  C16                     1.00   0.00  0.00  0.00  0.58  0.42  0.00  0.00  0.43  0.00
  C17                     1.00   0.00  0.00  0.00  0.55  0.45  0.00  0.00  0.98  0.00
  C18                     1.00   0.00  0.00  0.00  0.97  0.03  0.00  0.00  0.99  0.00
  C19                     1.00   0.00  0.00  0.00  0.80  0.20  0.00  0.00  1.00  0.00
  C2                      1.00   0.00  0.00  0.00  0.60  0.40  0.00  0.00  0.99  0.00
  C20                     1.00   0.00  0.00  0.00  0.78  0.22  0.00  0.00  0.99  0.00
  C21                     1.00   0.00  0.00  0.00  0.00  1.00  0.00  0.00  0.00  0.00
  C22                     1.00   0.00  0.00  0.00  0.99  0.01  0.00  0.00  1.00  0.00
  C23                     1.00   0.00  0.00  0.00  0.95  0.05  0.00  0.00  0.98  0.00
  C3                      1.00   0.00  0.00  0.00  0.02  0.98  0.00  0.00  0.34  0.00
  C4                      1.00   0.00  0.00  0.00  0.98  0.02  0.00  0.00  0.99  0.00
  C5                      1.00   0.00  0.00  0.00  0.90  0.10  0.00  0.00  0.99  0.00
  C6                      1.00   0.00  0.00  0.00  0.00  1.00  0.00  0.00  0.00  0.00
  C7                      1.00   0.00  0.00  0.00  0.98  0.02  0.00  0.00  0.99  0.00
  C8                      1.00   0.00  0.00  0.00  0.11  0.89  0.00  0.00  0.00  0.00
  C9                      1.00   0.00  0.00  0.00  1.00  0.00  0.00  0.00  1.00  0.00
  
  
  *************************
  Conduit Surcharge Summary
  *************************
  
  ----------------------------------------------------------------------------
                                                           Hours        Hours 
                         --------- Hours Full --------   Above Full   Capacity
  Conduit                Both Ends  Upstream  Dnstream   Normal Flow   Limited
  ----------------------------------------------------------------------------
  C10                         0.01      0.01     14.47      0.01         0.01
  C13                         0.01      0.01     13.79      0.01         0.01
  C15                         0.01      0.01      0.01      0.02         0.01
  C18                         0.01      0.01      4.73      0.01         0.01
  C23                         0.01      0.01     14.13      0.01         0.01
  C4                          0.01      0.01     14.22      0.01         0.01
  C7                          0.01      0.01     10.93      0.01         0.01
  C8                          0.01      0.75      0.01      0.76         0.01
  

  Analysis begun on:  Sun Aug 21 16:49:53 2022
  Analysis ended on:  Sun Aug 21 16:49:54 2022
  Total elapsed time: 00:00:01