
  EPA STORM WATER MANAGEMENT MODEL - VERSION 5.1 (Build 5.3.0.dev0)
  --------------------------------------------------------------

  
  *********************************************************
  NOTE: The summary statistics displayed in this report are
  based on results found at every computational time step,  
  not just on results from each reporting time step.
  *********************************************************
  
  ****************
  Analysis Options
  ****************
  Flow Units ............... CMS
  Process Models:
    Rainfall/Runoff ........ YES
    RDII ................... NO
    Snowmelt ............... NO
    Groundwater ............ NO
    Flow Routing ........... YES
    Ponding Allowed ........ NO
    Water Quality .......... NO
  Infiltration Method ...... HORTON
  Flow Routing Method ...... DYNWAVE
  Surcharge Method ......... EXTRAN
  Starting Date ............ 07/20/2000 07:45:00
  Ending Date .............. 07/20/2000 19:30:00
  Antecedent Dry Days ...... 0.0
  Report Time Step ......... 00:05:00
  Wet Time Step ............ 00:05:00
  Dry Time Step ............ 01:00:00
  Routing Time Step ........ 30.00 sec
  Variable Time Step ....... YES
  Maximum Trials ........... 8
  Number of Threads ........ 1
  Head Tolerance ........... 0.001500 m
  
  
  **************************        Volume         Depth
  Runoff Quantity Continuity     hectare-m            mm
  **************************     ---------       -------
  Total Precipitation ......         1.861        10.328
  Evaporation Loss .........         0.000         0.000
  Infiltration Loss ........         0.000         0.000
  Surface Runoff ...........         1.839        10.206
  Final Storage ............         0.032         0.175
  Continuity Error (%) .....        -0.514
  
  
  **************************        Volume        Volume
  Flow Routing Continuity        hectare-m      10^6 ltr
  **************************     ---------     ---------
  Dry Weather Inflow .......         0.536         5.364
  Wet Weather Inflow .......         1.840        18.397
  Groundwater Inflow .......         0.000         0.000
  RDII Inflow ..............         0.000         0.000
  External Inflow ..........         0.000         0.000
  External Outflow .........         0.935         9.348
  Flooding Loss ............         0.463         4.626
  Evaporation Loss .........         0.000         0.000
  Exfiltration Loss ........         0.000         0.000
  Initial Stored Volume ....         0.000         0.000
  Final Stored Volume ......         0.754         7.541
  Continuity Error (%) .....         9.451
  
  
  *************************
  Highest Continuity Errors
  *************************
  Node T2 (22.51%)
  Node T3 (19.48%)
  Node T5 (14.76%)
  Node T4 (14.01%)
  Node T6 (10.40%)
  
  
  ***************************
  Time-Step Critical Elements
  ***************************
  Link C15 (38.79%)
  Link C21 (1.26%)
  
  
  ********************************
  Highest Flow Instability Indexes
  ********************************
  Link V3 (8)
  Link C3 (8)
  Link C13 (8)
  Link C11 (7)
  Link C12 (7)
  
  
  *************************
  Routing Time Step Summary
  *************************
  Minimum Time Step           :     0.08 sec
  Average Time Step           :    26.45 sec
  Maximum Time Step           :    30.00 sec
  Percent in Steady State     :     4.81
  Average Iterations per Step :     2.59
  Percent Not Converging      :     1.97
  
  
  ***************************
  Subcatchment Runoff Summary
  ***************************
  
  ------------------------------------------------------------------------------------------------------------------------------
                            Total      Total      Total      Total     Imperv       Perv      Total       Total     Peak  Runoff
                           Precip      Runon       Evap      Infil     Runoff     Runoff     Runoff      Runoff   Runoff   Coeff
  Subcatchment                 mm         mm         mm         mm         mm         mm         mm    10^6 ltr      CMS
  ------------------------------------------------------------------------------------------------------------------------------
  SC01                      12.05       0.00       0.00       0.00      11.99       0.00      11.99        3.96     0.86   0.995
  SC010                     12.05       0.00       0.00       0.00      11.94       0.00      11.94        1.40     0.25   0.991
  SC02                      10.04       0.00       0.00       0.00       9.99       0.00       9.99        2.27     0.73   0.995
  SC03                       8.18       0.00       0.00       0.00       8.19       0.00       8.19        1.47     0.49   1.001
  SC04                      10.04       0.00       0.00       0.00       9.82       0.00       9.82        0.68     0.13   0.978
  SC05                      12.05       0.00       0.00       0.00      11.98       0.00      11.98        1.87     0.38   0.994
  SC06                      10.45       0.00       0.00       0.00      10.13       0.00      10.13        3.30     0.37   0.969
  SC07                      10.04       0.00       0.00       0.00       9.82       0.00       9.82        0.47     0.09   0.978
  SC08                       8.18       0.00       0.00       0.00       8.08       0.00       8.08        2.26     0.46   0.988
  SC09                      10.45       0.00       0.00       0.00      10.27       0.00      10.27        0.71     0.10   0.983
  
  
  ******************
  Node Depth Summary
  ******************
  
  ---------------------------------------------------------------------------------
                                 Average  Maximum  Maximum  Time of Max    Reported
                                   Depth    Depth      HGL   Occurrence   Max Depth
  Node                 Type       Meters   Meters   Meters  days hr:min      Meters
  ---------------------------------------------------------------------------------
  CSO10                JUNCTION     0.17     1.00    31.00     0  05:43        1.00
  CSO7                 JUNCTION     0.16     1.20    35.20     0  05:43        1.20
  CSO8                 JUNCTION     0.22     2.00    34.00     0  07:20        2.00
  CSO9                 JUNCTION     0.16     1.29    41.29     0  07:20        1.29
  J1                   JUNCTION     0.08     0.21    34.21     0  05:45        0.20
  J10                  JUNCTION     0.10     0.28    29.28     0  05:43        0.28
  J11                  JUNCTION     0.11     0.29    31.29     0  05:45        0.29
  J12                  JUNCTION     0.33     0.81    26.81     0  11:07        0.80
  J13                  JUNCTION     0.07     0.23    29.23     0  05:45        0.22
  J14                  JUNCTION     0.11     0.19    20.19     0  11:37        0.19
  J15                  JUNCTION     0.19     0.37    15.37     0  05:53        0.37
  J16                  JUNCTION     0.08     0.23    30.23     0  05:45        0.22
  J17                  JUNCTION     0.07     0.15    20.15     0  08:33        0.15
  J18                  JUNCTION     0.07     0.16    29.16     0  05:58        0.16
  J19                  JUNCTION     0.15     0.17     8.17     0  05:49        0.17
  J2                   JUNCTION     0.07     0.08    25.08     0  06:44        0.08
  J3                   JUNCTION     0.11     0.17    18.17     0  09:20        0.17
  J4                   JUNCTION     0.15     1.06    34.06     0  05:46        0.75
  J5                   JUNCTION     0.07     0.15    32.15     0  05:49        0.15
  J6                   JUNCTION     0.07     0.12    25.12     0  08:16        0.12
  J7                   JUNCTION     0.10     0.20    39.20     0  07:27        0.20
  J8                   JUNCTION     0.12     0.23    36.23     0  07:27        0.23
  J9                   JUNCTION     0.10     0.16    29.16     0  07:30        0.16
  Out_to_WWTP          OUTFALL      0.15     0.17     6.17     0  10:56        0.17
  T1                   STORAGE      3.94     5.00    15.00     0  03:25        5.00
  T2                   STORAGE      2.42     4.62    25.62     0  08:17        4.62
  T3                   STORAGE      2.65     4.82    26.82     0  11:03        4.81
  T4                   STORAGE      2.29     4.33    31.33     0  08:10        4.33
  T5                   STORAGE      3.56     5.00    32.00     0  05:53        5.00
  T6                   STORAGE      3.57     5.00    36.00     0  06:00        5.00
  
  
  *******************
  Node Inflow Summary
  *******************
  
  -------------------------------------------------------------------------------------------------
                                  Maximum  Maximum                  Lateral       Total        Flow
                                  Lateral    Total  Time of Max      Inflow      Inflow     Balance
                                   Inflow   Inflow   Occurrence      Volume      Volume       Error
  Node                 Type           CMS      CMS  days hr:min    10^6 ltr    10^6 ltr     Percent
  -------------------------------------------------------------------------------------------------
  CSO10                JUNCTION     0.251    0.251     0  05:45        1.59         1.6      -0.051
  CSO7                 JUNCTION     0.101    0.101     0  05:45       0.862       0.864       0.022
  CSO8                 JUNCTION     0.471    0.471     0  05:40        2.65        2.65      -0.064
  CSO9                 JUNCTION     0.105    0.105     0  05:50       0.975       0.977      -0.016
  J1                   JUNCTION     0.406    0.406     0  05:45        2.63        2.64      -0.049
  J10                  JUNCTION     0.510    0.888     0  05:42           2        4.65      -0.253
  J11                  JUNCTION     0.000    0.470     0  05:40           0        2.65      -0.168
  J12                  JUNCTION     0.000    0.948     0  07:27           0        8.47       7.599
  J13                  JUNCTION     0.749    0.749     0  05:45        2.91        2.92      -0.199
  J14                  JUNCTION     0.000    0.186     0  10:37           0        3.08       0.826
  J15                  JUNCTION     0.000    1.256     0  05:49           0        13.4       0.822
  J16                  JUNCTION     0.884    0.884     0  05:45        4.71        4.72      -0.129
  J17                  JUNCTION     0.000    0.135     0  08:22           0        1.58      -0.418
  J18                  JUNCTION     0.000    0.202     0  05:58           0        1.57      -0.176
  J19                  JUNCTION     0.000    0.271     0  03:25           0        9.36       0.130
  J2                   JUNCTION     0.000    0.039     0  05:53           0         1.3       0.389
  J3                   JUNCTION     0.000    0.296     0  09:18           0        5.53       0.674
  J4                   JUNCTION     0.000    0.085     0  05:44           0       0.843       0.084
  J5                   JUNCTION     0.135    0.205     0  05:47       0.852         1.7      -0.037
  J6                   JUNCTION     0.000    0.074     0  08:10           0        1.17      -1.167
  J7                   JUNCTION     0.000    0.105     0  05:50           0       0.977       0.083
  J8                   JUNCTION     0.398    0.494     0  07:25        4.58        5.56      -0.038
  J9                   JUNCTION     0.000    0.175     0  06:32           0        3.06       1.271
  Out_to_WWTP          OUTFALL      0.000    0.271     0  05:50           0        9.35       0.000
  T1                   STORAGE      0.000    1.215     0  05:53           0        13.3       5.593
  T2                   STORAGE      0.000    0.735     0  05:45           0        2.92      29.049
  T3                   STORAGE      0.000    0.918     0  07:30           0        7.88      24.197
  T4                   STORAGE      0.000    0.205     0  05:49           0         1.7      16.299
  T5                   STORAGE      0.000    0.400     0  05:46           0        2.64      17.310
  T6                   STORAGE      0.000    0.490     0  07:27           0        5.56      11.603
  
  
  **********************
  Node Surcharge Summary
  **********************
  
  Surcharging occurs when water rises above the top of the highest conduit.
  ---------------------------------------------------------------------
                                               Max. Height   Min. Depth
                                   Hours       Above Crown    Below Rim
  Node                 Type      Surcharged         Meters       Meters
  ---------------------------------------------------------------------
  CSO10                JUNCTION        0.30          0.560        0.000
  CSO7                 JUNCTION        0.42          0.945        0.000
  CSO8                 JUNCTION        0.55          1.547        0.000
  CSO9                 JUNCTION        0.46          0.975        0.707
  J4                   JUNCTION        0.39          0.756        0.944
  
  
  *********************
  Node Flooding Summary
  *********************
  
  Flooding refers to all water that overflows a node, whether it ponds or not.
  --------------------------------------------------------------------------
                                                             Total   Maximum
                                 Maximum   Time of Max       Flood    Ponded
                        Hours       Rate    Occurrence      Volume     Depth
  Node                 Flooded       CMS   days hr:min    10^6 ltr    Meters
  --------------------------------------------------------------------------
  CSO10                   0.24     0.049      0  05:45       0.031     0.000
  CSO7                    0.30     0.031      0  05:46       0.020     0.000
  CSO8                    0.01     0.031      0  07:20       0.000     0.000
  T1                      3.63     0.945      0  05:54       2.540     0.000
  T5                      1.82     0.320      0  05:53       0.555     0.000
  T6                      2.38     0.450      0  07:30       1.472     0.000
  
  
  **********************
  Storage Volume Summary
  **********************
  
  --------------------------------------------------------------------------------------------------
                         Average     Avg  Evap Exfil       Maximum     Max    Time of Max    Maximum
                          Volume    Pcnt  Pcnt  Pcnt        Volume    Pcnt     Occurrence    Outflow
  Storage Unit           1000 m3    Full  Loss  Loss       1000 m3    Full    days hr:min        CMS
  --------------------------------------------------------------------------------------------------
  T1                       0.552      79     0     0         0.700     100       0  03:25      0.271
  T2                       0.483      48     0     0         0.923      92       0  08:17      0.135
  T3                       1.379      53     0     0         2.506      96       0  11:03      0.401
  T4                       0.229      46     0     0         0.433      87       0  08:10      0.074
  T5                       0.356      71     0     0         0.500     100       0  05:53      0.039
  T6                       0.429      71     0     0         0.600     100       0  06:00      0.175
  
  
  ***********************
  Outfall Loading Summary
  ***********************
  
  -----------------------------------------------------------
                         Flow       Avg       Max       Total
                         Freq      Flow      Flow      Volume
  Outfall Node           Pcnt       CMS       CMS    10^6 ltr
  -----------------------------------------------------------
  Out_to_WWTP           99.31     0.226     0.271       9.348
  -----------------------------------------------------------
  System                99.31     0.226     0.271       9.348
  
  
  ********************
  Link Flow Summary
  ********************
  
  -----------------------------------------------------------------------------
                                 Maximum  Time of Max   Maximum    Max/    Max/
                                  |Flow|   Occurrence   |Veloc|    Full    Full
  Link                 Type          CMS  days hr:min     m/sec    Flow   Depth
  -----------------------------------------------------------------------------
  C1                   CONDUIT     0.039     0  06:44      1.09    0.01    0.12
  C10                  CONDUIT     0.490     0  07:27      1.66    0.05    0.58
  C11                  CONDUIT     0.289     0  09:20      2.12    0.01    0.13
  C12                  CONDUIT     0.173     0  07:30      1.48    0.01    0.24
  C13                  CONDUIT     0.918     0  07:30      1.51    0.05    0.70
  C14                  CONDUIT     0.271     0  05:50      2.08    0.02    0.09
  C15                  CONDUIT     0.470     0  05:40      3.52    1.50    0.82
  C16                  CONDUIT     0.458     0  05:45      1.69    0.04    0.14
  C17                  CONDUIT     0.881     0  05:43      3.19    0.04    0.21
  C18                  CONDUIT     0.735     0  05:45      3.36    0.03    0.56
  C19                  CONDUIT     0.133     0  08:34      1.54    0.05    0.25
  C2                   CONDUIT     0.074     0  08:16      1.80    0.08    0.24
  C20                  CONDUIT     0.867     0  05:46      3.47    0.03    0.15
  C21                  CONDUIT     0.202     0  05:58      1.86    1.16    0.69
  C22                  CONDUIT     0.202     0  05:58      1.57    0.09    0.33
  C23                  CONDUIT     1.215     0  05:53      1.24    0.13    0.62
  C3                   CONDUIT     0.189     0  11:38      2.21    0.07    0.17
  C4                   CONDUIT     0.400     0  05:46      3.06    0.10    0.61
  C5                   CONDUIT     0.085     0  05:44      1.67    1.45    1.00
  C6                   CONDUIT     0.071     0  05:49      1.29    1.13    0.75
  C7                   CONDUIT     0.205     0  05:49      1.44    0.05    0.58
  C8                   CONDUIT     0.105     0  05:50      1.52    1.32    0.81
  C9                   CONDUIT     0.098     0  07:27      1.24    0.34    0.43
  V1                   ORIFICE     0.271     0  03:25                      1.00
  V2                   ORIFICE     0.135     0  08:22                      1.00
  V3                   ORIFICE     0.186     0  10:37                      1.00
  V4                   ORIFICE     0.074     0  08:10                      1.00
  V5                   ORIFICE     0.039     0  05:53                      1.00
  V6                   ORIFICE     0.175     0  06:32                      1.00
  
  
  ***************************
  Flow Classification Summary
  ***************************
  
  -------------------------------------------------------------------------------------
                      Adjusted    ---------- Fraction of Time in Flow Class ---------- 
                       /Actual         Up    Down  Sub   Sup   Up    Down  Norm  Inlet 
  Conduit               Length    Dry  Dry   Dry   Crit  Crit  Crit  Crit  Ltd   Ctrl  
  -------------------------------------------------------------------------------------
  C1                      1.00   0.00  0.00  0.00  0.22  0.78  0.00  0.00  0.96  0.00
  C10                     1.00   0.00  0.00  0.00  0.97  0.03  0.00  0.00  0.98  0.00
  C11                     1.00   0.00  0.00  0.00  0.36  0.64  0.00  0.00  1.00  0.00
  C12                     1.00   0.00  0.00  0.00  0.78  0.21  0.00  0.00  0.91  0.00
  C13                     1.00   0.00  0.00  0.00  0.93  0.07  0.00  0.00  0.58  0.00
  C14                     1.00   0.00  0.00  0.00  0.00  0.99  0.00  0.00  0.35  0.00
  C15                     1.00   0.00  0.00  0.00  0.00  1.00  0.00  0.00  0.01  0.00
  C16                     1.00   0.00  0.00  0.00  0.33  0.67  0.00  0.00  0.37  0.00
  C17                     1.00   0.00  0.00  0.00  0.41  0.59  0.00  0.00  0.96  0.00
  C18                     1.00   0.00  0.00  0.00  0.97  0.03  0.00  0.00  0.98  0.00
  C19                     1.00   0.00  0.00  0.00  0.84  0.16  0.00  0.00  1.00  0.00
  C2                      1.00   0.00  0.00  0.00  0.46  0.54  0.00  0.00  0.99  0.00
  C20                     1.00   0.00  0.00  0.00  0.49  0.51  0.00  0.00  0.99  0.00
  C21                     1.00   0.00  0.00  0.00  0.01  0.99  0.00  0.00  0.00  0.00
  C22                     1.00   0.00  0.00  0.00  0.76  0.24  0.00  0.00  1.00  0.00
  C23                     1.00   0.00  0.00  0.00  0.93  0.07  0.00  0.00  0.96  0.00
  C3                      1.00   0.00  0.00  0.00  0.03  0.97  0.00  0.00  0.54  0.00
  C4                      1.00   0.00  0.00  0.00  0.97  0.03  0.00  0.00  0.99  0.00
  C5                      1.00   0.00  0.00  0.00  0.91  0.09  0.00  0.00  0.93  0.00
  C6                      1.00   0.00  0.00  0.00  0.07  0.93  0.00  0.00  0.00  0.00
  C7                      1.00   0.00  0.00  0.00  0.97  0.03  0.00  0.00  0.98  0.00
  C8                      1.00   0.00  0.00  0.00  0.11  0.89  0.00  0.00  0.00  0.00
  C9                      1.00   0.00  0.00  0.00  1.00  0.00  0.00  0.00  1.00  0.00
  
  
  *************************
  Conduit Surcharge Summary
  *************************
  
  ----------------------------------------------------------------------------
                                                           Hours        Hours 
                         --------- Hours Full --------   Above Full   Capacity
  Conduit                Both Ends  Upstream  Dnstream   Normal Flow   Limited
  ----------------------------------------------------------------------------
  C10                         0.01      0.01      9.53      0.01         0.01
  C13                         0.01      0.01      6.03      0.01         0.01
  C15                         0.01      0.54      0.01      0.58         0.01
  C18                         0.01      0.01      5.98      0.01         0.01
  C21                         0.01      0.30      0.01      0.28         0.01
  C23                         0.01      0.01      9.51      0.01         0.01
  C4                          0.01      0.01      9.66      0.01         0.01
  C5                          0.39      0.42      0.49      0.43         0.36
  C6                          0.01      0.39      0.01      0.31         0.01
  C7                          0.01      0.01      8.71      0.01         0.01
  C8                          0.01      0.46      0.01      0.48         0.01
  

  Analysis begun on:  Sun Aug 21 16:49:51 2022
  Analysis ended on:  Sun Aug 21 16:49:51 2022
  Total elapsed time: < 1 sec