
  EPA STORM WATER MANAGEMENT MODEL - VERSION 5.1 (Build 5.3.0.dev0)
  --------------------------------------------------------------

  
  *********************************************************
  NOTE: The summary statistics displayed in this report are
  based on results found at every computational time step,  
  not just on results from each reporting time step.
  *********************************************************
  
  ****************
  Analysis Options
  ****************
  Flow Units ............... CMS
  Process Models:
    Rainfall/Runoff ........ YES
    RDII ................... NO
    Snowmelt ............... NO
    Groundwater ............ NO
    Flow Routing ........... YES
    Ponding Allowed ........ NO
    Water Quality .......... NO
  Infiltration Method ...... HORTON
  Flow Routing Method ...... DYNWAVE
  Surcharge Method ......... EXTRAN
  Starting Date ............ 02/24/2007 17:05:00
  Ending Date .............. 02/25/2007 09:30:00
  Antecedent Dry Days ...... 0.0
  Report Time Step ......... 00:05:00
  Wet Time Step ............ 00:05:00
  Dry Time Step ............ 01:00:00
  Routing Time Step ........ 30.00 sec
  Variable Time Step ....... YES
  Maximum Trials ........... 8
  Number of Threads ........ 1
  Head Tolerance ........... 0.001500 m
  
  
  **************************        Volume         Depth
  Runoff Quantity Continuity     hectare-m            mm
  **************************     ---------       -------
  Total Precipitation ......         1.469         8.153
  Evaporation Loss .........         0.000         0.000
  Infiltration Loss ........         0.000         0.000
  Surface Runoff ...........         1.436         7.970
  Final Storage ............         0.035         0.196
  Continuity Error (%) .....        -0.155
  
  
  **************************        Volume        Volume
  Flow Routing Continuity        hectare-m      10^6 ltr
  **************************     ---------     ---------
  Dry Weather Inflow .......         0.383         3.830
  Wet Weather Inflow .......         1.436        14.355
  Groundwater Inflow .......         0.000         0.000
  RDII Inflow ..............         0.000         0.000
  External Inflow ..........         0.000         0.000
  External Outflow .........         1.096        10.962
  Flooding Loss ............         0.011         0.112
  Evaporation Loss .........         0.000         0.000
  Exfiltration Loss ........         0.000         0.000
  Initial Stored Volume ....         0.000         0.000
  Final Stored Volume ......         0.553         5.525
  Continuity Error (%) .....         8.719
  
  
  *************************
  Highest Continuity Errors
  *************************
  Node T6 (19.63%)
  Node T5 (15.49%)
  Node T3 (14.60%)
  Node T2 (11.39%)
  Node T4 (10.67%)
  
  
  ***************************
  Time-Step Critical Elements
  ***************************
  Link C15 (33.43%)
  
  
  ********************************
  Highest Flow Instability Indexes
  ********************************
  Link C11 (9)
  Link C12 (8)
  Link C3 (8)
  Link C23 (7)
  Link C2 (7)
  
  
  *************************
  Routing Time Step Summary
  *************************
  Minimum Time Step           :     0.00 sec
  Average Time Step           :    28.76 sec
  Maximum Time Step           :    30.00 sec
  Percent in Steady State     :     3.50
  Average Iterations per Step :     2.07
  Percent Not Converging      :     0.00
  
  
  ***************************
  Subcatchment Runoff Summary
  ***************************
  
  ------------------------------------------------------------------------------------------------------------------------------
                            Total      Total      Total      Total     Imperv       Perv      Total       Total     Peak  Runoff
                           Precip      Runon       Evap      Infil     Runoff     Runoff     Runoff      Runoff   Runoff   Coeff
  Subcatchment                 mm         mm         mm         mm         mm         mm         mm    10^6 ltr      CMS
  ------------------------------------------------------------------------------------------------------------------------------
  SC01                       8.62       0.00       0.00       0.00       8.50       0.00       8.50        2.81     0.15   0.987
  SC010                      8.62       0.00       0.00       0.00       8.45       0.00       8.45        0.99     0.05   0.981
  SC02                       7.43       0.00       0.00       0.00       7.30       0.00       7.30        1.66     0.09   0.982
  SC03                       7.86       0.00       0.00       0.00       7.79       0.00       7.79        1.40     0.11   0.992
  SC04                       7.43       0.00       0.00       0.00       7.13       0.00       7.13        0.49     0.02   0.960
  SC05                       8.62       0.00       0.00       0.00       8.49       0.00       8.49        1.32     0.07   0.985
  SC06                       8.41       0.00       0.00       0.00       8.04       0.00       8.04        2.62     0.12   0.956
  SC07                       7.43       0.00       0.00       0.00       7.13       0.00       7.13        0.34     0.01   0.960
  SC08                       7.86       0.00       0.00       0.00       7.71       0.00       7.71        2.16     0.09   0.981
  SC09                       8.41       0.00       0.00       0.00       8.20       0.00       8.20        0.57     0.03   0.975
  
  
  ******************
  Node Depth Summary
  ******************
  
  ---------------------------------------------------------------------------------
                                 Average  Maximum  Maximum  Time of Max    Reported
                                   Depth    Depth      HGL   Occurrence   Max Depth
  Node                 Type       Meters   Meters   Meters  days hr:min      Meters
  ---------------------------------------------------------------------------------
  CSO10                JUNCTION     0.10     0.18    30.18     0  07:31        0.18
  CSO7                 JUNCTION     0.07     0.10    34.10     0  01:35        0.10
  CSO8                 JUNCTION     0.11     0.18    32.18     0  00:25        0.18
  CSO9                 JUNCTION     0.09     0.15    40.15     0  12:56        0.14
  J1                   JUNCTION     0.06     0.09    34.09     0  07:31        0.09
  J10                  JUNCTION     0.08     0.13    29.13     0  00:28        0.13
  J11                  JUNCTION     0.09     0.13    31.13     0  00:30        0.13
  J12                  JUNCTION     0.12     0.17    26.17     0  13:31        0.16
  J13                  JUNCTION     0.05     0.09    29.09     0  01:35        0.09
  J14                  JUNCTION     0.11     0.18    20.18     0  15:37        0.17
  J15                  JUNCTION     0.16     0.22    15.22     0  13:00        0.21
  J16                  JUNCTION     0.06     0.10    30.10     0  07:31        0.10
  J17                  JUNCTION     0.06     0.11    20.11     0  14:40        0.11
  J18                  JUNCTION     0.05     0.08    29.08     0  07:34        0.08
  J19                  JUNCTION     0.14     0.17     8.17     0  14:16        0.17
  J2                   JUNCTION     0.06     0.07    25.07     0  14:44        0.07
  J3                   JUNCTION     0.10     0.15    18.15     0  16:06        0.15
  J4                   JUNCTION     0.09     0.12    33.12     0  01:40        0.12
  J5                   JUNCTION     0.05     0.07    32.07     0  01:39        0.07
  J6                   JUNCTION     0.05     0.09    25.09     0  15:47        0.09
  J7                   JUNCTION     0.07     0.11    39.11     0  12:59        0.11
  J8                   JUNCTION     0.09     0.14    36.14     0  13:06        0.14
  J9                   JUNCTION     0.09     0.17    29.17     0  15:38        0.17
  Out_to_WWTP          OUTFALL      0.14     0.17     6.17     0  15:05        0.17
  T1                   STORAGE      2.65     5.00    15.00     0  14:15        5.00
  T2                   STORAGE      0.92     1.65    22.65     0  14:25        1.65
  T3                   STORAGE      1.86     3.55    25.55     0  15:55        3.55
  T4                   STORAGE      0.81     1.80    28.80     0  15:40        1.80
  T5                   STORAGE      1.73     3.12    30.12     0  14:42        3.12
  T6                   STORAGE      2.01     4.90    35.90     0  15:30        4.90
  
  
  *******************
  Node Inflow Summary
  *******************
  
  -------------------------------------------------------------------------------------------------
                                  Maximum  Maximum                  Lateral       Total        Flow
                                  Lateral    Total  Time of Max      Inflow      Inflow     Balance
                                   Inflow   Inflow   Occurrence      Volume      Volume       Error
  Node                 Type           CMS      CMS  days hr:min    10^6 ltr    10^6 ltr     Percent
  -------------------------------------------------------------------------------------------------
  CSO10                JUNCTION     0.051    0.051     0  07:30        1.13        1.13       0.056
  CSO7                 JUNCTION     0.019    0.019     0  01:35       0.629        0.63       0.079
  CSO8                 JUNCTION     0.099    0.099     0  00:25        2.32        2.33       0.014
  CSO9                 JUNCTION     0.032    0.032     0  12:55       0.762       0.762       0.066
  J1                   JUNCTION     0.072    0.072     0  07:30        1.89        1.89       0.057
  J10                  JUNCTION     0.115    0.189     0  00:26        1.79        4.11       0.113
  J11                  JUNCTION     0.000    0.099     0  00:25           0        2.33       0.215
  J12                  JUNCTION     0.000    0.281     0  13:30           0        7.03      -0.217
  J13                  JUNCTION     0.099    0.099     0  01:35        2.13        2.13      -0.055
  J14                  JUNCTION     0.000    0.160     0  15:45           0        4.25       0.451
  J15                  JUNCTION     0.000    0.414     0  13:00           0        12.6       0.631
  J16                  JUNCTION     0.152    0.152     0  07:30        3.36        3.36       0.033
  J17                  JUNCTION     0.000    0.080     0  14:25           0        1.64      -0.874
  J18                  JUNCTION     0.000    0.051     0  07:31           0        1.13       0.158
  J19                  JUNCTION     0.000    0.271     0  14:15           0          11       0.112
  J2                   JUNCTION     0.000    0.031     0  14:42           0        1.31       0.342
  J3                   JUNCTION     0.000    0.239     0  15:48           0         6.5       0.868
  J4                   JUNCTION     0.000    0.019     0  01:35           0       0.629       0.668
  J5                   JUNCTION     0.021    0.038     0  01:37       0.619        1.25       0.161
  J6                   JUNCTION     0.000    0.048     0  15:40           0       0.958      -0.760
  J7                   JUNCTION     0.000    0.032     0  12:56           0       0.761       0.474
  J8                   JUNCTION     0.143    0.173     0  12:55        3.56        4.32       0.161
  J9                   JUNCTION     0.000    0.173     0  15:30           0         2.9      -0.655
  Out_to_WWTP          OUTFALL      0.000    0.271     0  14:16           0          11       0.000
  T1                   STORAGE      0.000    0.402     0  13:00           0        12.5       6.588
  T2                   STORAGE      0.000    0.098     0  01:35           0        2.13      12.849
  T3                   STORAGE      0.000    0.243     0  13:31           0        7.04      17.094
  T4                   STORAGE      0.000    0.038     0  01:39           0        1.24      11.945
  T5                   STORAGE      0.000    0.072     0  07:31           0        1.89      18.330
  T6                   STORAGE      0.000    0.173     0  13:06           0        4.31      24.426
  
  
  **********************
  Node Surcharge Summary
  **********************
  
  No nodes were surcharged.
  
  
  *********************
  Node Flooding Summary
  *********************
  
  Flooding refers to all water that overflows a node, whether it ponds or not.
  --------------------------------------------------------------------------
                                                             Total   Maximum
                                 Maximum   Time of Max       Flood    Ponded
                        Hours       Rate    Occurrence      Volume     Depth
  Node                 Flooded       CMS   days hr:min    10^6 ltr    Meters
  --------------------------------------------------------------------------
  T1                      0.73     0.074      0  14:41       0.112     0.000
  
  
  **********************
  Storage Volume Summary
  **********************
  
  --------------------------------------------------------------------------------------------------
                         Average     Avg  Evap Exfil       Maximum     Max    Time of Max    Maximum
                          Volume    Pcnt  Pcnt  Pcnt        Volume    Pcnt     Occurrence    Outflow
  Storage Unit           1000 m3    Full  Loss  Loss       1000 m3    Full    days hr:min        CMS
  --------------------------------------------------------------------------------------------------
  T1                       0.371      53     0     0         0.700     100       0  14:15      0.271
  T2                       0.184      18     0     0         0.329      33       0  14:25      0.080
  T3                       0.968      37     0     0         1.847      71       0  15:55      0.160
  T4                       0.081      16     0     0         0.180      36       0  15:40      0.048
  T5                       0.173      35     0     0         0.312      62       0  14:42      0.031
  T6                       0.241      40     0     0         0.588      98       0  15:30      0.173
  
  
  ***********************
  Outfall Loading Summary
  ***********************
  
  -----------------------------------------------------------
                         Flow       Avg       Max       Total
                         Freq      Flow      Flow      Volume
  Outfall Node           Pcnt       CMS       CMS    10^6 ltr
  -----------------------------------------------------------
  Out_to_WWTP           99.46     0.187     0.271      10.962
  -----------------------------------------------------------
  System                99.46     0.187     0.271      10.962
  
  
  ********************
  Link Flow Summary
  ********************
  
  -----------------------------------------------------------------------------
                                 Maximum  Time of Max   Maximum    Max/    Max/
                                  |Flow|   Occurrence   |Veloc|    Full    Full
  Link                 Type          CMS  days hr:min     m/sec    Flow   Depth
  -----------------------------------------------------------------------------
  C1                   CONDUIT     0.031     0  14:45      1.00    0.01    0.11
  C10                  CONDUIT     0.173     0  13:06      1.59    0.02    0.55
  C11                  CONDUIT     0.229     0  16:06      1.91    0.01    0.09
  C12                  CONDUIT     0.172     0  15:40      1.60    0.01    0.08
  C13                  CONDUIT     0.243     0  13:31      2.23    0.01    0.54
  C14                  CONDUIT     0.271     0  14:16      2.08    0.02    0.09
  C15                  CONDUIT     0.099     0  00:25      2.06    0.32    0.34
  C16                  CONDUIT     0.090     0  00:30      1.01    0.01    0.07
  C17                  CONDUIT     0.184     0  00:29      1.98    0.01    0.07
  C18                  CONDUIT     0.098     0  01:35      4.72    0.00    0.43
  C19                  CONDUIT     0.079     0  14:40      1.18    0.03    0.16
  C2                   CONDUIT     0.047     0  15:47      1.41    0.05    0.20
  C20                  CONDUIT     0.152     0  07:31      3.71    0.00    0.08
  C21                  CONDUIT     0.051     0  07:31      1.34    0.29    0.30
  C22                  CONDUIT     0.050     0  07:34      0.97    0.02    0.18
  C23                  CONDUIT     0.402     0  13:00      1.93    0.04    0.57
  C3                   CONDUIT     0.162     0  15:08      2.17    0.06    0.16
  C4                   CONDUIT     0.072     0  07:31      4.05    0.02    0.55
  C5                   CONDUIT     0.019     0  01:35      1.16    0.33    0.43
  C6                   CONDUIT     0.018     0  01:40      0.97    0.29    0.31
  C7                   CONDUIT     0.038     0  01:39      1.38    0.01    0.53
  C8                   CONDUIT     0.032     0  12:56      1.07    0.40    0.40
  C9                   CONDUIT     0.031     0  12:59      0.82    0.11    0.25
  V1                   ORIFICE     0.271     0  14:15                      1.00
  V2                   ORIFICE     0.080     0  14:25                      1.00
  V3                   ORIFICE     0.160     0  15:45                      1.00
  V4                   ORIFICE     0.048     0  15:40                      1.00
  V5                   ORIFICE     0.031     0  14:42                      1.00
  V6                   ORIFICE     0.173     0  15:30                      1.00
  
  
  ***************************
  Flow Classification Summary
  ***************************
  
  -------------------------------------------------------------------------------------
                      Adjusted    ---------- Fraction of Time in Flow Class ---------- 
                       /Actual         Up    Down  Sub   Sup   Up    Down  Norm  Inlet 
  Conduit               Length    Dry  Dry   Dry   Crit  Crit  Crit  Crit  Ltd   Ctrl  
  -------------------------------------------------------------------------------------
  C1                      1.00   0.00  0.00  0.00  0.53  0.47  0.00  0.00  0.97  0.00
  C10                     1.00   0.00  0.00  0.00  0.97  0.03  0.00  0.00  0.99  0.00
  C11                     1.00   0.00  0.00  0.00  0.13  0.87  0.00  0.00  1.00  0.00
  C12                     1.00   0.00  0.00  0.00  0.65  0.35  0.00  0.00  0.87  0.00
  C13                     1.00   0.00  0.00  0.00  0.96  0.04  0.00  0.00  0.96  0.00
  C14                     1.00   0.00  0.00  0.00  0.00  0.99  0.00  0.00  0.62  0.00
  C15                     1.00   0.00  0.00  0.00  0.00  1.00  0.00  0.00  0.00  0.00
  C16                     1.00   0.00  0.00  0.00  0.24  0.76  0.00  0.00  0.13  0.00
  C17                     1.00   0.00  0.00  0.00  0.18  0.82  0.00  0.00  0.98  0.00
  C18                     1.00   0.00  0.00  0.00  0.97  0.03  0.00  0.00  0.98  0.00
  C19                     1.00   0.00  0.00  0.00  0.87  0.13  0.00  0.00  1.00  0.00
  C2                      1.00   0.00  0.00  0.00  0.56  0.44  0.00  0.00  0.99  0.00
  C20                     1.00   0.00  0.00  0.00  0.59  0.41  0.00  0.00  0.99  0.00
  C21                     1.00   0.00  0.00  0.00  0.00  1.00  0.00  0.00  0.00  0.00
  C22                     1.00   0.00  0.00  0.00  0.97  0.03  0.00  0.00  1.00  0.00
  C23                     1.00   0.00  0.00  0.00  0.97  0.03  0.00  0.00  0.98  0.00
  C3                      1.00   0.00  0.00  0.00  0.02  0.97  0.00  0.00  0.39  0.00
  C4                      1.00   0.00  0.00  0.00  0.98  0.02  0.00  0.00  0.99  0.00
  C5                      1.00   0.00  0.00  0.00  0.81  0.19  0.00  0.00  0.99  0.00
  C6                      1.00   0.00  0.00  0.00  0.00  0.99  0.00  0.00  0.00  0.00
  C7                      1.00   0.00  0.00  0.00  0.97  0.03  0.00  0.00  0.98  0.00
  C8                      1.00   0.00  0.00  0.00  0.03  0.97  0.00  0.00  0.00  0.00
  C9                      1.00   0.00  0.00  0.00  1.00  0.00  0.00  0.00  1.00  0.00
  
  
  *************************
  Conduit Surcharge Summary
  *************************
  
  ----------------------------------------------------------------------------
                                                           Hours        Hours 
                         --------- Hours Full --------   Above Full   Capacity
  Conduit                Both Ends  Upstream  Dnstream   Normal Flow   Limited
  ----------------------------------------------------------------------------
  C10                         0.01      0.01      7.83      0.01         0.01
  C13                         0.01      0.01      6.71      0.01         0.01
  C23                         0.01      0.01     10.92      0.01         0.01
  C4                          0.01      0.01     12.37      0.01         0.01
  C7                          0.01      0.01      4.33      0.01         0.01
  

  Analysis begun on:  Sun Aug 21 16:49:52 2022
  Analysis ended on:  Sun Aug 21 16:49:53 2022
  Total elapsed time: 00:00:01