
  EPA STORM WATER MANAGEMENT MODEL - VERSION 5.1 (Build 5.3.0.dev0)
  --------------------------------------------------------------

  
  *********************************************************
  NOTE: The summary statistics displayed in this report are
  based on results found at every computational time step,  
  not just on results from each reporting time step.
  *********************************************************
  
  ****************
  Analysis Options
  ****************
  Flow Units ............... CMS
  Process Models:
    Rainfall/Runoff ........ YES
    RDII ................... NO
    Snowmelt ............... NO
    Groundwater ............ NO
    Flow Routing ........... YES
    Ponding Allowed ........ NO
    Water Quality .......... NO
  Infiltration Method ...... HORTON
  Flow Routing Method ...... DYNWAVE
  Surcharge Method ......... EXTRAN
  Starting Date ............ 08/24/2009 05:45:00
  Ending Date .............. 08/24/2009 19:45:00
  Antecedent Dry Days ...... 0.0
  Report Time Step ......... 00:05:00
  Wet Time Step ............ 00:05:00
  Dry Time Step ............ 01:00:00
  Routing Time Step ........ 30.00 sec
  Variable Time Step ....... YES
  Maximum Trials ........... 8
  Number of Threads ........ 1
  Head Tolerance ........... 0.001500 m
  
  
  **************************        Volume         Depth
  Runoff Quantity Continuity     hectare-m            mm
  **************************     ---------       -------
  Total Precipitation ......         1.710         9.492
  Evaporation Loss .........         0.000         0.000
  Infiltration Loss ........         0.000         0.000
  Surface Runoff ...........         1.670         9.267
  Final Storage ............         0.043         0.240
  Continuity Error (%) .....        -0.155
  
  
  **************************        Volume        Volume
  Flow Routing Continuity        hectare-m      10^6 ltr
  **************************     ---------     ---------
  Dry Weather Inflow .......         0.620         6.203
  Wet Weather Inflow .......         1.669        16.691
  Groundwater Inflow .......         0.000         0.000
  RDII Inflow ..............         0.000         0.000
  External Inflow ..........         0.000         0.000
  External Outflow .........         1.071        10.713
  Flooding Loss ............         0.210         2.099
  Evaporation Loss .........         0.000         0.000
  Exfiltration Loss ........         0.000         0.000
  Initial Stored Volume ....         0.000         0.000
  Final Stored Volume ......         0.773         7.728
  Continuity Error (%) .....        10.282
  
  
  *************************
  Highest Continuity Errors
  *************************
  Node T2 (21.85%)
  Node T5 (18.65%)
  Node T3 (16.12%)
  Node T6 (13.94%)
  Node T4 (11.05%)
  
  
  ***************************
  Time-Step Critical Elements
  ***************************
  Link C15 (68.36%)
  
  
  ********************************
  Highest Flow Instability Indexes
  ********************************
  Link C3 (9)
  Link C13 (8)
  Link C11 (8)
  Link V3 (8)
  Link C23 (7)
  
  
  *************************
  Routing Time Step Summary
  *************************
  Minimum Time Step           :     0.05 sec
  Average Time Step           :    26.35 sec
  Maximum Time Step           :    30.00 sec
  Percent in Steady State     :     3.79
  Average Iterations per Step :     2.08
  Percent Not Converging      :     0.00
  
  
  ***************************
  Subcatchment Runoff Summary
  ***************************
  
  ------------------------------------------------------------------------------------------------------------------------------
                            Total      Total      Total      Total     Imperv       Perv      Total       Total     Peak  Runoff
                           Precip      Runon       Evap      Infil     Runoff     Runoff     Runoff      Runoff   Runoff   Coeff
  Subcatchment                 mm         mm         mm         mm         mm         mm         mm    10^6 ltr      CMS
  ------------------------------------------------------------------------------------------------------------------------------
  SC01                       7.79       0.00       0.00       0.00       7.65       0.00       7.65        2.52     0.16   0.982
  SC010                      7.79       0.00       0.00       0.00       7.59       0.00       7.59        0.89     0.05   0.974
  SC02                      10.23       0.00       0.00       0.00      10.08       0.00      10.08        2.29     0.22   0.986
  SC03                      11.33       0.00       0.00       0.00      11.25       0.00      11.25        2.03     0.20   0.993
  SC04                      10.23       0.00       0.00       0.00       9.86       0.00       9.86        0.68     0.04   0.964
  SC05                       7.79       0.00       0.00       0.00       7.63       0.00       7.63        1.19     0.08   0.980
  SC06                       9.31       0.00       0.00       0.00       8.86       0.00       8.86        2.88     0.13   0.952
  SC07                      10.23       0.00       0.00       0.00       9.86       0.00       9.86        0.47     0.03   0.964
  SC08                      11.33       0.00       0.00       0.00      11.12       0.00      11.12        3.11     0.24   0.982
  SC09                       9.31       0.00       0.00       0.00       9.05       0.00       9.05        0.62     0.03   0.972
  
  
  ******************
  Node Depth Summary
  ******************
  
  ---------------------------------------------------------------------------------
                                 Average  Maximum  Maximum  Time of Max    Reported
                                   Depth    Depth      HGL   Occurrence   Max Depth
  Node                 Type       Meters   Meters   Meters  days hr:min      Meters
  ---------------------------------------------------------------------------------
  CSO10                JUNCTION     0.11     0.18    30.18     0  11:58        0.18
  CSO7                 JUNCTION     0.10     0.15    34.15     0  05:10        0.15
  CSO8                 JUNCTION     0.15     0.32    32.32     0  11:40        0.32
  CSO9                 JUNCTION     0.11     0.16    40.16     0  11:56        0.16
  J1                   JUNCTION     0.07     0.10    34.10     0  11:58        0.10
  J10                  JUNCTION     0.11     0.20    29.20     0  11:42        0.20
  J11                  JUNCTION     0.12     0.21    31.21     0  11:42        0.21
  J12                  JUNCTION     0.35     1.02    27.02     0  12:24        1.01
  J13                  JUNCTION     0.07     0.13    29.13     0  05:11        0.13
  J14                  JUNCTION     0.12     0.19    20.19     0  12:42        0.19
  J15                  JUNCTION     0.17     0.25    15.25     0  11:58        0.25
  J16                  JUNCTION     0.07     0.10    30.10     0  11:58        0.10
  J17                  JUNCTION     0.07     0.14    20.14     0  12:32        0.14
  J18                  JUNCTION     0.06     0.09    29.09     0  12:03        0.09
  J19                  JUNCTION     0.15     0.17     8.17     0  08:34        0.17
  J2                   JUNCTION     0.06     0.07    25.07     0  12:34        0.07
  J3                   JUNCTION     0.11     0.17    18.17     0  13:19        0.17
  J4                   JUNCTION     0.12     0.18    33.18     0  05:17        0.18
  J5                   JUNCTION     0.07     0.10    32.10     0  05:14        0.10
  J6                   JUNCTION     0.07     0.11    25.11     0  12:29        0.11
  J7                   JUNCTION     0.08     0.12    39.12     0  12:02        0.12
  J8                   JUNCTION     0.11     0.14    36.14     0  11:58        0.14
  J9                   JUNCTION     0.10     0.16    29.16     0  09:27        0.16
  Out_to_WWTP          OUTFALL      0.15     0.17     6.17     0  13:12        0.17
  T1                   STORAGE      3.55     5.00    15.00     0  07:43        5.00
  T2                   STORAGE      2.08     3.56    24.56     0  12:25        3.56
  T3                   STORAGE      2.99     5.00    27.00     0  11:55        5.00
  T4                   STORAGE      1.93     3.03    30.03     0  12:55        3.03
  T5                   STORAGE      2.52     3.97    30.97     0  12:32        3.97
  T6                   STORAGE      3.47     5.00    36.00     0  09:14        5.00
  
  
  *******************
  Node Inflow Summary
  *******************
  
  -------------------------------------------------------------------------------------------------
                                  Maximum  Maximum                  Lateral       Total        Flow
                                  Lateral    Total  Time of Max      Inflow      Inflow     Balance
                                   Inflow   Inflow   Occurrence      Volume      Volume       Error
  Node                 Type           CMS      CMS  days hr:min    10^6 ltr    10^6 ltr     Percent
  -------------------------------------------------------------------------------------------------
  CSO10                JUNCTION     0.056    0.055     0  11:58        1.11        1.11      -0.077
  CSO7                 JUNCTION     0.040    0.040     0  05:10       0.925       0.925       0.010
  CSO8                 JUNCTION     0.250    0.250     0  11:40        3.56        3.56      -0.089
  CSO9                 JUNCTION     0.036    0.036     0  11:55       0.932       0.932      -0.035
  J1                   JUNCTION     0.089    0.087     0  11:58        2.07        2.07      -0.133
  J10                  JUNCTION     0.205    0.441     0  11:40        2.63        6.22      -0.325
  J11                  JUNCTION     0.000    0.250     0  11:40           0        3.57      -0.364
  J12                  JUNCTION     0.000    0.579     0  11:45           0         9.8       8.029
  J13                  JUNCTION     0.237    0.237     0  05:10        3.03        3.03      -0.282
  J14                  JUNCTION     0.000    0.190     0  12:05           0        4.52       0.160
  J15                  JUNCTION     0.000    0.566     0  11:55           0        13.4       0.150
  J16                  JUNCTION     0.176    0.173     0  11:58        3.39         3.4      -0.210
  J17                  JUNCTION     0.000    0.118     0  12:25           0        1.72      -1.403
  J18                  JUNCTION     0.000    0.054     0  11:58           0        1.11      -0.219
  J19                  JUNCTION     0.000    0.271     0  07:44           0        10.7       0.117
  J2                   JUNCTION     0.000    0.035     0  12:32           0        1.32       0.385
  J3                   JUNCTION     0.000    0.285     0  13:13           0        7.19       0.251
  J4                   JUNCTION     0.000    0.040     0  05:11           0       0.925       0.203
  J5                   JUNCTION     0.047    0.078     0  05:13        0.88         1.8      -0.013
  J6                   JUNCTION     0.000    0.062     0  12:55           0        1.36       0.017
  J7                   JUNCTION     0.000    0.036     0  11:56           0       0.933       0.023
  J8                   JUNCTION     0.150    0.185     0  11:57        4.36         5.3      -0.023
  J9                   JUNCTION     0.000    0.175     0  09:15           0         3.5       2.406
  Out_to_WWTP          OUTFALL      0.000    0.271     0  08:34           0        10.7       0.000
  T1                   STORAGE      0.000    0.534     0  11:58           0        13.4       6.435
  T2                   STORAGE      0.000    0.229     0  05:11           0        3.04      27.962
  T3                   STORAGE      0.000    0.553     0  12:03           0        9.07      19.215
  T4                   STORAGE      0.000    0.078     0  05:14           0         1.8      12.420
  T5                   STORAGE      0.000    0.086     0  11:58           0        2.08      22.925
  T6                   STORAGE      0.000    0.184     0  11:58           0         5.3      16.203
  
  
  **********************
  Node Surcharge Summary
  **********************
  
  No nodes were surcharged.
  
  
  *********************
  Node Flooding Summary
  *********************
  
  Flooding refers to all water that overflows a node, whether it ponds or not.
  --------------------------------------------------------------------------
                                                             Total   Maximum
                                 Maximum   Time of Max       Flood    Ponded
                        Hours       Rate    Occurrence      Volume     Depth
  Node                 Flooded       CMS   days hr:min    10^6 ltr    Meters
  --------------------------------------------------------------------------
  T1                      4.83     0.264      0  11:58       1.190     0.000
  T3                      0.55     0.429      0  12:03       0.420     0.000
  T6                      2.46     0.144      0  12:05       0.486     0.000
  
  
  **********************
  Storage Volume Summary
  **********************
  
  --------------------------------------------------------------------------------------------------
                         Average     Avg  Evap Exfil       Maximum     Max    Time of Max    Maximum
                          Volume    Pcnt  Pcnt  Pcnt        Volume    Pcnt     Occurrence    Outflow
  Storage Unit           1000 m3    Full  Loss  Loss       1000 m3    Full    days hr:min        CMS
  --------------------------------------------------------------------------------------------------
  T1                       0.497      71     0     0         0.700     100       0  07:43      0.271
  T2                       0.416      42     0     0         0.712      71       0  12:25      0.118
  T3                       1.557      60     0     0         2.600     100       0  11:55      0.381
  T4                       0.193      39     0     0         0.303      61       0  12:55      0.062
  T5                       0.252      50     0     0         0.397      79       0  12:32      0.035
  T6                       0.416      69     0     0         0.600     100       0  09:14      0.175
  
  
  ***********************
  Outfall Loading Summary
  ***********************
  
  -----------------------------------------------------------
                         Flow       Avg       Max       Total
                         Freq      Flow      Flow      Volume
  Outfall Node           Pcnt       CMS       CMS    10^6 ltr
  -----------------------------------------------------------
  Out_to_WWTP           99.32     0.216     0.271      10.713
  -----------------------------------------------------------
  System                99.32     0.216     0.271      10.713
  
  
  ********************
  Link Flow Summary
  ********************
  
  -----------------------------------------------------------------------------
                                 Maximum  Time of Max   Maximum    Max/    Max/
                                  |Flow|   Occurrence   |Veloc|    Full    Full
  Link                 Type          CMS  days hr:min     m/sec    Flow   Depth
  -----------------------------------------------------------------------------
  C1                   CONDUIT     0.035     0  12:35      0.97    0.01    0.12
  C10                  CONDUIT     0.184     0  11:58      1.50    0.02    0.55
  C11                  CONDUIT     0.282     0  13:19      1.99    0.01    0.10
  C12                  CONDUIT     0.173     0  09:27      1.41    0.01    0.29
  C13                  CONDUIT     0.553     0  12:03      1.46    0.03    0.75
  C14                  CONDUIT     0.271     0  08:34      2.08    0.02    0.09
  C15                  CONDUIT     0.250     0  11:40      2.56    0.79    0.58
  C16                  CONDUIT     0.244     0  11:42      1.41    0.02    0.10
  C17                  CONDUIT     0.435     0  11:42      2.37    0.02    0.30
  C18                  CONDUIT     0.229     0  05:11      1.70    0.01    0.53
  C19                  CONDUIT     0.117     0  12:32      1.36    0.04    0.19
  C2                   CONDUIT     0.061     0  12:29      1.61    0.07    0.23
  C20                  CONDUIT     0.171     0  11:58      4.75    0.01    0.09
  C21                  CONDUIT     0.054     0  11:58      1.51    0.31    0.31
  C22                  CONDUIT     0.053     0  12:03      0.94    0.02    0.21
  C23                  CONDUIT     0.534     0  11:58      1.17    0.06    0.58
  C3                   CONDUIT     0.192     0  12:43      2.26    0.07    0.18
  C4                   CONDUIT     0.086     0  11:58      5.92    0.02    0.55
  C5                   CONDUIT     0.040     0  05:11      1.26    0.68    0.63
  C6                   CONDUIT     0.036     0  05:17      1.16    0.57    0.45
  C7                   CONDUIT     0.078     0  05:14      1.31    0.02    0.55
  C8                   CONDUIT     0.036     0  11:56      1.75    0.45    0.43
  C9                   CONDUIT     0.035     0  12:02      0.87    0.12    0.26
  V1                   ORIFICE     0.271     0  07:44                      1.00
  V2                   ORIFICE     0.118     0  12:25                      1.00
  V3                   ORIFICE     0.190     0  12:05                      1.00
  V4                   ORIFICE     0.062     0  12:55                      1.00
  V5                   ORIFICE     0.035     0  12:32                      1.00
  V6                   ORIFICE     0.175     0  09:15                      1.00
  
  
  ***************************
  Flow Classification Summary
  ***************************
  
  -------------------------------------------------------------------------------------
                      Adjusted    ---------- Fraction of Time in Flow Class ---------- 
                       /Actual         Up    Down  Sub   Sup   Up    Down  Norm  Inlet 
  Conduit               Length    Dry  Dry   Dry   Crit  Crit  Crit  Crit  Ltd   Ctrl  
  -------------------------------------------------------------------------------------
  C1                      1.00   0.00  0.00  0.00  0.66  0.34  0.00  0.00  0.96  0.00
  C10                     1.00   0.00  0.00  0.00  0.97  0.03  0.00  0.00  0.98  0.00
  C11                     1.00   0.00  0.00  0.00  0.14  0.86  0.00  0.00  1.00  0.00
  C12                     1.00   0.00  0.00  0.00  0.87  0.13  0.00  0.00  0.99  0.00
  C13                     1.00   0.00  0.00  0.00  0.93  0.07  0.00  0.00  0.52  0.00
  C14                     1.00   0.01  0.00  0.00  0.01  0.99  0.00  0.00  0.33  0.00
  C15                     1.00   0.02  0.00  0.00  0.00  0.98  0.00  0.00  0.01  0.00
  C16                     1.00   0.00  0.02  0.00  0.10  0.88  0.00  0.00  0.11  0.00
  C17                     1.00   0.00  0.00  0.00  0.39  0.61  0.00  0.00  0.98  0.00
  C18                     1.00   0.00  0.00  0.00  0.95  0.05  0.00  0.00  0.98  0.00
  C19                     1.00   0.00  0.00  0.00  0.86  0.14  0.00  0.00  1.00  0.00
  C2                      1.00   0.00  0.00  0.00  0.47  0.52  0.00  0.00  0.99  0.00
  C20                     1.00   0.00  0.00  0.00  0.50  0.50  0.00  0.00  0.99  0.00
  C21                     1.00   0.00  0.00  0.00  0.00  1.00  0.00  0.00  0.00  0.00
  C22                     1.00   0.00  0.00  0.00  0.98  0.02  0.00  0.00  1.00  0.00
  C23                     1.00   0.00  0.00  0.00  0.94  0.06  0.00  0.00  0.96  0.00
  C3                      1.00   0.00  0.00  0.00  0.03  0.96  0.00  0.00  0.37  0.00
  C4                      1.00   0.00  0.00  0.00  0.97  0.03  0.00  0.00  0.99  0.00
  C5                      1.00   0.00  0.00  0.00  0.91  0.09  0.00  0.00  0.99  0.00
  C6                      1.00   0.00  0.00  0.00  0.01  0.99  0.00  0.00  0.00  0.00
  C7                      1.00   0.00  0.00  0.00  0.96  0.04  0.00  0.00  0.98  0.00
  C8                      1.00   0.00  0.00  0.00  0.00  1.00  0.00  0.00  0.00  0.00
  C9                      1.00   0.00  0.00  0.00  1.00  0.00  0.00  0.00  1.00  0.00
  
  
  *************************
  Conduit Surcharge Summary
  *************************
  
  ----------------------------------------------------------------------------
                                                           Hours        Hours 
                         --------- Hours Full --------   Above Full   Capacity
  Conduit                Both Ends  Upstream  Dnstream   Normal Flow   Limited
  ----------------------------------------------------------------------------
  C10                         0.01      0.01     11.23      0.01         0.01
  C13                         0.01      0.01      9.19      0.01         0.01
  C18                         0.01      0.01      7.85      0.01         0.01
  C23                         0.01      0.01     11.49      0.01         0.01
  C4                          0.01      0.01     11.68      0.01         0.01
  C7                          0.01      0.01     10.58      0.01         0.01
  

  Analysis begun on:  Sun Aug 21 16:49:54 2022
  Analysis ended on:  Sun Aug 21 16:49:55 2022
  Total elapsed time: 00:00:01