
  EPA STORM WATER MANAGEMENT MODEL - VERSION 5.1 (Build 5.3.0.dev0)
  --------------------------------------------------------------

  
  *********************************************************
  NOTE: The summary statistics displayed in this report are
  based on results found at every computational time step,  
  not just on results from each reporting time step.
  *********************************************************
  
  ****************
  Analysis Options
  ****************
  Flow Units ............... CMS
  Process Models:
    Rainfall/Runoff ........ YES
    RDII ................... NO
    Snowmelt ............... NO
    Groundwater ............ NO
    Flow Routing ........... YES
    Ponding Allowed ........ NO
    Water Quality .......... NO
  Infiltration Method ...... HORTON
  Flow Routing Method ...... DYNWAVE
  Surcharge Method ......... EXTRAN
  Starting Date ............ 05/06/2006 13:45:00
  Ending Date .............. 05/07/2006 08:05:00
  Antecedent Dry Days ...... 0.0
  Report Time Step ......... 00:05:00
  Wet Time Step ............ 00:05:00
  Dry Time Step ............ 01:00:00
  Routing Time Step ........ 30.00 sec
  Variable Time Step ....... YES
  Maximum Trials ........... 8
  Number of Threads ........ 1
  Head Tolerance ........... 0.001500 m
  
  
  **************************        Volume         Depth
  Runoff Quantity Continuity     hectare-m            mm
  **************************     ---------       -------
  Total Precipitation ......         2.398        13.309
  Evaporation Loss .........         0.000         0.000
  Infiltration Loss ........         0.000         0.000
  Surface Runoff ...........         2.364        13.118
  Final Storage ............         0.036         0.200
  Continuity Error (%) .....        -0.063
  
  
  **************************        Volume        Volume
  Flow Routing Continuity        hectare-m      10^6 ltr
  **************************     ---------     ---------
  Dry Weather Inflow .......         0.460         4.603
  Wet Weather Inflow .......         2.364        23.636
  Groundwater Inflow .......         0.000         0.000
  RDII Inflow ..............         0.000         0.000
  External Inflow ..........         0.000         0.000
  External Outflow .........         1.440        14.398
  Flooding Loss ............         0.366         3.660
  Evaporation Loss .........         0.000         0.000
  Exfiltration Loss ........         0.000         0.000
  Initial Stored Volume ....         0.000         0.000
  Final Stored Volume ......         0.781         7.814
  Continuity Error (%) .....         8.382
  
  
  *************************
  Highest Continuity Errors
  *************************
  Node T2 (18.00%)
  Node T5 (15.68%)
  Node T3 (15.51%)
  Node T4 (10.12%)
  Node T6 (8.90%)
  
  
  ***************************
  Time-Step Critical Elements
  ***************************
  Link C15 (47.03%)
  
  
  ********************************
  Highest Flow Instability Indexes
  ********************************
  Link C13 (9)
  Link C3 (9)
  Link C11 (8)
  Link C23 (8)
  Link C12 (8)
  
  
  *************************
  Routing Time Step Summary
  *************************
  Minimum Time Step           :     0.01 sec
  Average Time Step           :    27.44 sec
  Maximum Time Step           :    30.00 sec
  Percent in Steady State     :     5.36
  Average Iterations per Step :     2.07
  Percent Not Converging      :     0.00
  
  
  ***************************
  Subcatchment Runoff Summary
  ***************************
  
  ------------------------------------------------------------------------------------------------------------------------------
                            Total      Total      Total      Total     Imperv       Perv      Total       Total     Peak  Runoff
                           Precip      Runon       Evap      Infil     Runoff     Runoff     Runoff      Runoff   Runoff   Coeff
  Subcatchment                 mm         mm         mm         mm         mm         mm         mm    10^6 ltr      CMS
  ------------------------------------------------------------------------------------------------------------------------------
  SC01                      12.77       0.00       0.00       0.00      12.65       0.00      12.65        4.17     0.25   0.990
  SC010                     12.77       0.00       0.00       0.00      12.60       0.00      12.60        1.48     0.09   0.987
  SC02                      13.40       0.00       0.00       0.00      13.27       0.00      13.27        3.02     0.14   0.990
  SC03                      11.59       0.00       0.00       0.00      11.50       0.00      11.50        2.07     0.11   0.993
  SC04                      13.40       0.00       0.00       0.00      13.09       0.00      13.09        0.90     0.04   0.977
  SC05                      12.77       0.00       0.00       0.00      12.64       0.00      12.64        1.97     0.12   0.990
  SC06                      16.06       0.00       0.00       0.00      15.69       0.00      15.69        5.11     0.21   0.977
  SC07                      13.40       0.00       0.00       0.00      13.09       0.00      13.09        0.62     0.03   0.977
  SC08                      11.59       0.00       0.00       0.00      11.42       0.00      11.42        3.20     0.15   0.985
  SC09                      16.06       0.00       0.00       0.00      15.85       0.00      15.85        1.09     0.05   0.987
  
  
  ******************
  Node Depth Summary
  ******************
  
  ---------------------------------------------------------------------------------
                                 Average  Maximum  Maximum  Time of Max    Reported
                                   Depth    Depth      HGL   Occurrence   Max Depth
  Node                 Type       Meters   Meters   Meters  days hr:min      Meters
  ---------------------------------------------------------------------------------
  CSO10                JUNCTION     0.12     0.24    30.24     0  13:51        0.24
  CSO7                 JUNCTION     0.09     0.13    34.13     0  14:16        0.13
  CSO8                 JUNCTION     0.13     0.23    32.23     0  14:40        0.23
  CSO9                 JUNCTION     0.11     0.19    40.19     0  13:01        0.19
  J1                   JUNCTION     0.07     0.12    34.12     0  13:51        0.12
  J10                  JUNCTION     0.09     0.16    29.16     0  14:46        0.16
  J11                  JUNCTION     0.10     0.17    31.17     0  14:46        0.17
  J12                  JUNCTION     0.32     1.01    27.01     0  16:44        1.01
  J13                  JUNCTION     0.07     0.11    29.11     0  14:16        0.10
  J14                  JUNCTION     0.12     0.19    20.19     0  15:52        0.19
  J15                  JUNCTION     0.18     0.26    15.26     0  14:12        0.26
  J16                  JUNCTION     0.07     0.13    30.13     0  13:51        0.13
  J17                  JUNCTION     0.07     0.14    20.14     0  17:00        0.14
  J18                  JUNCTION     0.06     0.11    29.11     0  13:53        0.11
  J19                  JUNCTION     0.15     0.17     8.17     0  13:19        0.17
  J2                   JUNCTION     0.06     0.08    25.08     0  16:16        0.08
  J3                   JUNCTION     0.12     0.16    18.16     0  15:10        0.16
  J4                   JUNCTION     0.11     0.16    33.16     0  14:20        0.16
  J5                   JUNCTION     0.06     0.09    32.09     0  14:19        0.09
  J6                   JUNCTION     0.06     0.11    25.11     0  16:51        0.11
  J7                   JUNCTION     0.09     0.14    39.14     0  13:06        0.14
  J8                   JUNCTION     0.11     0.17    36.17     0  13:06        0.17
  J9                   JUNCTION     0.11     0.17    29.17     0  08:08        0.17
  Out_to_WWTP          OUTFALL      0.15     0.17     6.17     0  18:13        0.17
  T1                   STORAGE      3.63     5.00    15.00     0  13:18        5.00
  T2                   STORAGE      1.99     3.67    24.67     0  16:35        3.67
  T3                   STORAGE      2.92     5.00    27.00     0  15:57        5.00
  T4                   STORAGE      1.77     3.03    30.03     0  16:35        3.03
  T5                   STORAGE      2.66     4.95    31.95     0  16:11        4.95
  T6                   STORAGE      3.60     5.00    36.00     0  12:54        5.00
  
  
  *******************
  Node Inflow Summary
  *******************
  
  -------------------------------------------------------------------------------------------------
                                  Maximum  Maximum                  Lateral       Total        Flow
                                  Lateral    Total  Time of Max      Inflow      Inflow     Balance
                                   Inflow   Inflow   Occurrence      Volume      Volume       Error
  Node                 Type           CMS      CMS  days hr:min    10^6 ltr    10^6 ltr     Percent
  -------------------------------------------------------------------------------------------------
  CSO10                JUNCTION     0.087    0.087     0  13:50        1.65        1.65      -0.000
  CSO7                 JUNCTION     0.032    0.032     0  14:15       0.968       0.969       0.024
  CSO8                 JUNCTION     0.150    0.150     0  14:40        3.43        3.43      -0.006
  CSO9                 JUNCTION     0.051    0.051     0  13:05        1.33        1.33      -0.025
  J1                   JUNCTION     0.122    0.122     0  13:50        2.64        2.64      -0.011
  J10                  JUNCTION     0.120    0.257     0  14:44        2.53        5.95      -0.054
  J11                  JUNCTION     0.000    0.150     0  14:41           0        3.43       0.055
  J12                  JUNCTION     0.000    0.413     0  14:45           0        11.1       6.346
  J13                  JUNCTION     0.147    0.147     0  14:15        3.58        3.58      -0.203
  J14                  JUNCTION     0.000    0.190     0  16:46           0        5.99      -0.513
  J15                  JUNCTION     0.000    0.629     0  14:55           0        18.1       0.519
  J16                  JUNCTION     0.256    0.256     0  13:50        4.83        4.84      -0.042
  J17                  JUNCTION     0.000    0.120     0  16:36           0        2.32       2.053
  J18                  JUNCTION     0.000    0.087     0  13:51           0        1.65      -0.049
  J19                  JUNCTION     0.000    0.271     0  13:18           0        14.4       0.087
  J2                   JUNCTION     0.000    0.039     0  16:11           0        1.79       0.295
  J3                   JUNCTION     0.000    0.291     0  16:49           0        9.38      -0.029
  J4                   JUNCTION     0.000    0.032     0  14:16           0       0.968       0.318
  J5                   JUNCTION     0.042    0.071     0  14:17        1.05        2.02       0.023
  J6                   JUNCTION     0.000    0.062     0  16:36           0        1.57       0.115
  J7                   JUNCTION     0.000    0.051     0  13:05           0        1.33       0.031
  J8                   JUNCTION     0.218    0.269     0  13:05        6.23        7.58      -0.040
  J9                   JUNCTION     0.000    0.175     0  12:54           0        5.05      -0.288
  Out_to_WWTP          OUTFALL      0.000    0.271     0  13:20           0        14.4       0.000
  T1                   STORAGE      0.000    0.598     0  14:12           0          18       4.685
  T2                   STORAGE      0.000    0.145     0  14:16           0        3.59      21.956
  T3                   STORAGE      0.000    0.448     0  14:54           0        10.4      18.358
  T4                   STORAGE      0.000    0.071     0  14:19           0        2.02      11.260
  T5                   STORAGE      0.000    0.121     0  13:51           0        2.64      18.596
  T6                   STORAGE      0.000    0.269     0  13:07           0        7.59       9.774
  
  
  **********************
  Node Surcharge Summary
  **********************
  
  No nodes were surcharged.
  
  
  *********************
  Node Flooding Summary
  *********************
  
  Flooding refers to all water that overflows a node, whether it ponds or not.
  --------------------------------------------------------------------------
                                                             Total   Maximum
                                 Maximum   Time of Max       Flood    Ponded
                        Hours       Rate    Occurrence      Volume     Depth
  Node                 Flooded       CMS   days hr:min    10^6 ltr    Meters
  --------------------------------------------------------------------------
  T1                      4.14     0.327      0  14:12       2.131     0.000
  T3                      0.57     0.260      0  15:57       0.181     0.000
  T6                      2.95     0.237      0  13:10       1.348     0.000
  
  
  **********************
  Storage Volume Summary
  **********************
  
  --------------------------------------------------------------------------------------------------
                         Average     Avg  Evap Exfil       Maximum     Max    Time of Max    Maximum
                          Volume    Pcnt  Pcnt  Pcnt        Volume    Pcnt     Occurrence    Outflow
  Storage Unit           1000 m3    Full  Loss  Loss       1000 m3    Full    days hr:min        CMS
  --------------------------------------------------------------------------------------------------
  T1                       0.508      73     0     0         0.700     100       0  13:18      0.271
  T2                       0.398      40     0     0         0.734      73       0  16:35      0.120
  T3                       1.519      58     0     0         2.600     100       0  15:57      0.266
  T4                       0.177      35     0     0         0.303      61       0  16:35      0.062
  T5                       0.266      53     0     0         0.495      99       0  16:11      0.039
  T6                       0.432      72     0     0         0.600     100       0  12:54      0.175
  
  
  ***********************
  Outfall Loading Summary
  ***********************
  
  -----------------------------------------------------------
                         Flow       Avg       Max       Total
                         Freq      Flow      Flow      Volume
  Outfall Node           Pcnt       CMS       CMS    10^6 ltr
  -----------------------------------------------------------
  Out_to_WWTP           99.62     0.220     0.271      14.398
  -----------------------------------------------------------
  System                99.62     0.220     0.271      14.398
  
  
  ********************
  Link Flow Summary
  ********************
  
  -----------------------------------------------------------------------------
                                 Maximum  Time of Max   Maximum    Max/    Max/
                                  |Flow|   Occurrence   |Veloc|    Full    Full
  Link                 Type          CMS  days hr:min     m/sec    Flow   Depth
  -----------------------------------------------------------------------------
  C1                   CONDUIT     0.039     0  16:17      1.05    0.01    0.12
  C10                  CONDUIT     0.269     0  13:07      1.81    0.03    0.56
  C11                  CONDUIT     0.274     0  17:35      2.07    0.01    0.10
  C12                  CONDUIT     0.173     0  08:10      1.61    0.01    0.29
  C13                  CONDUIT     0.448     0  14:54      1.55    0.03    0.75
  C14                  CONDUIT     0.271     0  13:20      2.08    0.02    0.09
  C15                  CONDUIT     0.150     0  14:41      2.26    0.48    0.43
  C16                  CONDUIT     0.147     0  14:46      1.22    0.01    0.08
  C17                  CONDUIT     0.255     0  14:46      1.83    0.01    0.27
  C18                  CONDUIT     0.145     0  14:16      3.17    0.01    0.53
  C19                  CONDUIT     0.117     0  17:17      1.45    0.04    0.20
  C2                   CONDUIT     0.061     0  16:51      1.56    0.07    0.22
  C20                  CONDUIT     0.255     0  13:51      3.22    0.01    0.09
  C21                  CONDUIT     0.087     0  13:51      1.56    0.50    0.39
  C22                  CONDUIT     0.086     0  13:53      1.07    0.04    0.23
  C23                  CONDUIT     0.598     0  14:12      1.34    0.07    0.59
  C3                   CONDUIT     0.193     0  16:48      2.22    0.07    0.17
  C4                   CONDUIT     0.121     0  13:51      3.10    0.03    0.56
  C5                   CONDUIT     0.032     0  14:16      1.34    0.54    0.57
  C6                   CONDUIT     0.031     0  14:20      1.10    0.49    0.42
  C7                   CONDUIT     0.071     0  14:19      1.56    0.02    0.55
  C8                   CONDUIT     0.051     0  13:05      1.23    0.65    0.53
  C9                   CONDUIT     0.051     0  13:06      0.97    0.17    0.31
  V1                   ORIFICE     0.271     0  13:18                      1.00
  V2                   ORIFICE     0.120     0  16:36                      1.00
  V3                   ORIFICE     0.190     0  16:46                      1.00
  V4                   ORIFICE     0.062     0  16:36                      1.00
  V5                   ORIFICE     0.039     0  16:11                      1.00
  V6                   ORIFICE     0.175     0  12:54                      1.00
  
  
  ***************************
  Flow Classification Summary
  ***************************
  
  -------------------------------------------------------------------------------------
                      Adjusted    ---------- Fraction of Time in Flow Class ---------- 
                       /Actual         Up    Down  Sub   Sup   Up    Down  Norm  Inlet 
  Conduit               Length    Dry  Dry   Dry   Crit  Crit  Crit  Crit  Ltd   Ctrl  
  -------------------------------------------------------------------------------------
  C1                      1.00   0.00  0.00  0.00  0.64  0.36  0.00  0.00  0.98  0.00
  C10                     1.00   0.00  0.00  0.00  0.98  0.02  0.00  0.00  0.99  0.00
  C11                     1.00   0.00  0.00  0.00  0.13  0.87  0.00  0.00  1.00  0.00
  C12                     1.00   0.00  0.00  0.00  0.70  0.29  0.00  0.00  0.85  0.00
  C13                     1.00   0.00  0.00  0.00  0.95  0.05  0.00  0.00  0.69  0.00
  C14                     1.00   0.00  0.00  0.00  0.00  0.99  0.00  0.00  0.36  0.00
  C15                     1.00   0.00  0.00  0.00  0.00  1.00  0.00  0.00  0.00  0.00
  C16                     1.00   0.00  0.00  0.00  0.21  0.79  0.00  0.00  0.08  0.00
  C17                     1.00   0.00  0.00  0.00  0.45  0.55  0.00  0.00  0.99  0.00
  C18                     1.00   0.00  0.00  0.00  0.98  0.02  0.00  0.00  0.99  0.00
  C19                     1.00   0.00  0.00  0.00  0.84  0.16  0.00  0.00  1.00  0.00
  C2                      1.00   0.00  0.00  0.00  0.52  0.48  0.00  0.00  0.99  0.00
  C20                     1.00   0.00  0.00  0.00  0.51  0.49  0.00  0.00  0.99  0.00
  C21                     1.00   0.00  0.00  0.00  0.00  1.00  0.00  0.00  0.00  0.00
  C22                     1.00   0.00  0.00  0.00  0.99  0.01  0.00  0.00  1.00  0.00
  C23                     1.00   0.00  0.00  0.00  0.96  0.04  0.00  0.00  0.98  0.00
  C3                      1.00   0.00  0.00  0.00  0.02  0.97  0.00  0.00  0.37  0.00
  C4                      1.00   0.00  0.00  0.00  0.99  0.01  0.00  0.00  0.99  0.00
  C5                      1.00   0.00  0.00  0.00  0.82  0.18  0.00  0.00  0.99  0.00
  C6                      1.00   0.00  0.00  0.00  0.00  1.00  0.00  0.00  0.00  0.00
  C7                      1.00   0.00  0.00  0.00  0.98  0.02  0.00  0.00  0.99  0.00
  C8                      1.00   0.00  0.00  0.00  0.00  1.00  0.00  0.00  0.00  0.00
  C9                      1.00   0.00  0.00  0.00  1.00  0.00  0.00  0.00  1.00  0.00
  
  
  *************************
  Conduit Surcharge Summary
  *************************
  
  ----------------------------------------------------------------------------
                                                           Hours        Hours 
                         --------- Hours Full --------   Above Full   Capacity
  Conduit                Both Ends  Upstream  Dnstream   Normal Flow   Limited
  ----------------------------------------------------------------------------
  C10                         0.01      0.01     14.93      0.01         0.01
  C13                         0.01      0.01     13.10      0.01         0.01
  C18                         0.01      0.01      7.73      0.01         0.01
  C23                         0.01      0.01     15.46      0.01         0.01
  C4                          0.01      0.01     15.36      0.01         0.01
  C7                          0.01      0.01     15.69      0.01         0.01
  

  Analysis begun on:  Sun Aug 21 16:49:50 2022
  Analysis ended on:  Sun Aug 21 16:49:51 2022
  Total elapsed time: 00:00:01