
  EPA STORM WATER MANAGEMENT MODEL - VERSION 5.1 (Build 5.3.0.dev0)
  --------------------------------------------------------------

  
  *********************************************************
  NOTE: The summary statistics displayed in this report are
  based on results found at every computational time step,  
  not just on results from each reporting time step.
  *********************************************************
  
  ****************
  Analysis Options
  ****************
  Flow Units ............... CMS
  Process Models:
    Rainfall/Runoff ........ YES
    RDII ................... NO
    Snowmelt ............... NO
    Groundwater ............ NO
    Flow Routing ........... YES
    Ponding Allowed ........ NO
    Water Quality .......... NO
  Infiltration Method ...... HORTON
  Flow Routing Method ...... DYNWAVE
  Surcharge Method ......... EXTRAN
  Starting Date ............ 02/10/2001 18:05:00
  Ending Date .............. 02/11/2001 06:45:00
  Antecedent Dry Days ...... 0.0
  Report Time Step ......... 00:05:00
  Wet Time Step ............ 00:05:00
  Dry Time Step ............ 01:00:00
  Routing Time Step ........ 30.00 sec
  Variable Time Step ....... YES
  Maximum Trials ........... 8
  Number of Threads ........ 1
  Head Tolerance ........... 0.001500 m
  
  
  **************************        Volume         Depth
  Runoff Quantity Continuity     hectare-m            mm
  **************************     ---------       -------
  Total Precipitation ......         1.685         9.350
  Evaporation Loss .........         0.000         0.000
  Infiltration Loss ........         0.000         0.000
  Surface Runoff ...........         1.649         9.151
  Final Storage ............         0.037         0.204
  Continuity Error (%) .....        -0.056
  
  
  **************************        Volume        Volume
  Flow Routing Continuity        hectare-m      10^6 ltr
  **************************     ---------     ---------
  Dry Weather Inflow .......         0.230         2.301
  Wet Weather Inflow .......         1.648        16.483
  Groundwater Inflow .......         0.000         0.000
  RDII Inflow ..............         0.000         0.000
  External Inflow ..........         0.000         0.000
  External Outflow .........         0.965         9.652
  Flooding Loss ............         0.056         0.563
  Evaporation Loss .........         0.000         0.000
  Exfiltration Loss ........         0.000         0.000
  Initial Stored Volume ....         0.000         0.000
  Final Stored Volume ......         0.652         6.517
  Continuity Error (%) .....        10.924
  
  
  *************************
  Highest Continuity Errors
  *************************
  Node T2 (23.47%)
  Node T3 (17.28%)
  Node T5 (17.17%)
  Node T6 (16.66%)
  Node T4 (10.38%)
  
  
  ***************************
  Time-Step Critical Elements
  ***************************
  Link C15 (49.85%)
  
  
  ********************************
  Highest Flow Instability Indexes
  ********************************
  Link C11 (9)
  Link C12 (9)
  Link C3 (9)
  Link C23 (8)
  Link V3 (8)
  
  
  *************************
  Routing Time Step Summary
  *************************
  Minimum Time Step           :     0.00 sec
  Average Time Step           :    28.18 sec
  Maximum Time Step           :    30.00 sec
  Percent in Steady State     :     1.25
  Average Iterations per Step :     2.07
  Percent Not Converging      :     0.00
  
  
  ***************************
  Subcatchment Runoff Summary
  ***************************
  
  ------------------------------------------------------------------------------------------------------------------------------
                            Total      Total      Total      Total     Imperv       Perv      Total       Total     Peak  Runoff
                           Precip      Runon       Evap      Infil     Runoff     Runoff     Runoff      Runoff   Runoff   Coeff
  Subcatchment                 mm         mm         mm         mm         mm         mm         mm    10^6 ltr      CMS
  ------------------------------------------------------------------------------------------------------------------------------
  SC01                       9.16       0.00       0.00       0.00       9.03       0.00       9.03        2.98     0.13   0.986
  SC010                      9.16       0.00       0.00       0.00       8.98       0.00       8.98        1.06     0.04   0.981
  SC02                      12.19       0.00       0.00       0.00      12.05       0.00      12.05        2.74     0.13   0.988
  SC03                       7.74       0.00       0.00       0.00       7.65       0.00       7.65        1.38     0.06   0.988
  SC04                      12.19       0.00       0.00       0.00      11.87       0.00      11.87        0.82     0.04   0.974
  SC05                       9.16       0.00       0.00       0.00       9.02       0.00       9.02        1.41     0.06   0.985
  SC06                       9.04       0.00       0.00       0.00       8.67       0.00       8.67        2.82     0.11   0.959
  SC07                      12.19       0.00       0.00       0.00      11.87       0.00      11.87        0.56     0.02   0.974
  SC08                       7.74       0.00       0.00       0.00       7.56       0.00       7.56        2.12     0.09   0.977
  SC09                       9.04       0.00       0.00       0.00       8.82       0.00       8.82        0.61     0.02   0.976
  
  
  ******************
  Node Depth Summary
  ******************
  
  ---------------------------------------------------------------------------------
                                 Average  Maximum  Maximum  Time of Max    Reported
                                   Depth    Depth      HGL   Occurrence   Max Depth
  Node                 Type       Meters   Meters   Meters  days hr:min      Meters
  ---------------------------------------------------------------------------------
  CSO10                JUNCTION     0.12     0.17    30.17     0  02:11        0.17
  CSO7                 JUNCTION     0.09     0.13    34.13     0  02:10        0.13
  CSO8                 JUNCTION     0.12     0.17    32.17     0  04:15        0.17
  CSO9                 JUNCTION     0.10     0.13    40.13     0  02:55        0.13
  J1                   JUNCTION     0.07     0.09    34.09     0  02:12        0.09
  J10                  JUNCTION     0.09     0.12    29.12     0  04:17        0.12
  J11                  JUNCTION     0.09     0.13    31.13     0  04:18        0.13
  J12                  JUNCTION     0.13     0.17    26.17     0  06:25        0.17
  J13                  JUNCTION     0.07     0.10    29.10     0  02:10        0.10
  J14                  JUNCTION     0.11     0.18    20.18     0  11:47        0.18
  J15                  JUNCTION     0.17     0.21    15.21     0  09:10        0.21
  J16                  JUNCTION     0.07     0.10    30.10     0  02:11        0.10
  J17                  JUNCTION     0.07     0.14    20.14     0  09:52        0.14
  J18                  JUNCTION     0.06     0.08    29.08     0  02:15        0.08
  J19                  JUNCTION     0.15     0.17     8.17     0  08:08        0.17
  J2                   JUNCTION     0.06     0.07    25.07     0  10:50        0.07
  J3                   JUNCTION     0.11     0.16    18.16     0  12:21        0.16
  J4                   JUNCTION     0.11     0.16    33.16     0  02:17        0.16
  J5                   JUNCTION     0.07     0.09    32.09     0  02:15        0.09
  J6                   JUNCTION     0.07     0.11    25.11     0  07:37        0.11
  J7                   JUNCTION     0.08     0.10    39.10     0  02:56        0.10
  J8                   JUNCTION     0.10     0.12    36.12     0  08:15        0.12
  J9                   JUNCTION     0.10     0.16    29.16     0  11:23        0.16
  Out_to_WWTP          OUTFALL      0.15     0.17     6.17     0  11:14        0.17
  T1                   STORAGE      3.52     5.00    15.00     0  08:07        5.00
  T2                   STORAGE      2.79     4.12    25.12     0  09:45        4.12
  T3                   STORAGE      2.22     4.10    26.10     0  11:40        4.10
  T4                   STORAGE      2.11     2.81    29.81     0  07:30        2.81
  T5                   STORAGE      2.30     3.38    30.38     0  10:45        3.38
  T6                   STORAGE      2.87     5.00    36.00     0  11:02        5.00
  
  
  *******************
  Node Inflow Summary
  *******************
  
  -------------------------------------------------------------------------------------------------
                                  Maximum  Maximum                  Lateral       Total        Flow
                                  Lateral    Total  Time of Max      Inflow      Inflow     Balance
                                   Inflow   Inflow   Occurrence      Volume      Volume       Error
  Node                 Type           CMS      CMS  days hr:min    10^6 ltr    10^6 ltr     Percent
  -------------------------------------------------------------------------------------------------
  CSO10                JUNCTION     0.048    0.048     0  02:10        1.14        1.14       0.043
  CSO7                 JUNCTION     0.031    0.031     0  02:10       0.744       0.744       0.121
  CSO8                 JUNCTION     0.089    0.089     0  04:15        2.14        2.14       0.015
  CSO9                 JUNCTION     0.024    0.024     0  02:55        0.73        0.73       0.094
  J1                   JUNCTION     0.075    0.075     0  02:10        1.76        1.76       0.058
  J10                  JUNCTION     0.066    0.153     0  04:15        1.62        3.76       0.096
  J11                  JUNCTION     0.000    0.089     0  04:15           0        2.14       0.231
  J12                  JUNCTION     0.000    0.262     0  06:24           0        6.67       0.747
  J13                  JUNCTION     0.141    0.141     0  02:10        3.03        3.03      -0.114
  J14                  JUNCTION     0.000    0.171     0  11:45           0        3.39       0.420
  J15                  JUNCTION     0.000    0.420     0  08:50           0        11.8       0.539
  J16                  JUNCTION     0.145    0.145     0  02:10        3.32        3.32       0.016
  J17                  JUNCTION     0.000    0.127     0  09:45           0        1.61      -0.007
  J18                  JUNCTION     0.000    0.048     0  02:11           0        1.14       0.036
  J19                  JUNCTION     0.000    0.271     0  08:07           0        9.66       0.129
  J2                   JUNCTION     0.000    0.032     0  10:45           0        1.16       0.395
  J3                   JUNCTION     0.000    0.258     0  12:15           0        5.74       0.490
  J4                   JUNCTION     0.000    0.031     0  02:11           0       0.743       0.463
  J5                   JUNCTION     0.039    0.069     0  02:14       0.898        1.64       0.088
  J6                   JUNCTION     0.000    0.060     0  07:30           0        1.24       1.642
  J7                   JUNCTION     0.000    0.024     0  02:55           0        0.73       0.379
  J8                   JUNCTION     0.110    0.133     0  08:15         3.4        4.13       0.161
  J9                   JUNCTION     0.000    0.175     0  11:05           0        2.95       1.117
  Out_to_WWTP          OUTFALL      0.000    0.271     0  08:08           0        9.65       0.000
  T1                   STORAGE      0.000    0.387     0  09:10           0        11.7       7.468
  T2                   STORAGE      0.000    0.141     0  02:10           0        3.03      30.674
  T3                   STORAGE      0.000    0.250     0  06:25           0        6.62      20.884
  T4                   STORAGE      0.000    0.069     0  02:16           0        1.64      11.577
  T5                   STORAGE      0.000    0.074     0  02:12           0        1.76      20.725
  T6                   STORAGE      0.000    0.133     0  08:16           0        4.13      19.997
  
  
  **********************
  Node Surcharge Summary
  **********************
  
  No nodes were surcharged.
  
  
  *********************
  Node Flooding Summary
  *********************
  
  Flooding refers to all water that overflows a node, whether it ponds or not.
  --------------------------------------------------------------------------
                                                             Total   Maximum
                                 Maximum   Time of Max       Flood    Ponded
                        Hours       Rate    Occurrence      Volume     Depth
  Node                 Flooded       CMS   days hr:min    10^6 ltr    Meters
  --------------------------------------------------------------------------
  T1                      2.94     0.116      0  09:10       0.554     0.000
  T6                      0.06     0.042      0  11:02       0.009     0.000
  
  
  **********************
  Storage Volume Summary
  **********************
  
  --------------------------------------------------------------------------------------------------
                         Average     Avg  Evap Exfil       Maximum     Max    Time of Max    Maximum
                          Volume    Pcnt  Pcnt  Pcnt        Volume    Pcnt     Occurrence    Outflow
  Storage Unit           1000 m3    Full  Loss  Loss       1000 m3    Full    days hr:min        CMS
  --------------------------------------------------------------------------------------------------
  T1                       0.493      70     0     0         0.700     100       0  08:07      0.271
  T2                       0.558      56     0     0         0.824      82       0  09:45      0.127
  T3                       1.154      44     0     0         2.132      82       0  11:40      0.171
  T4                       0.211      42     0     0         0.281      56       0  07:30      0.060
  T5                       0.230      46     0     0         0.338      68       0  10:45      0.032
  T6                       0.344      57     0     0         0.600     100       0  11:02      0.175
  
  
  ***********************
  Outfall Loading Summary
  ***********************
  
  -----------------------------------------------------------
                         Flow       Avg       Max       Total
                         Freq      Flow      Flow      Volume
  Outfall Node           Pcnt       CMS       CMS    10^6 ltr
  -----------------------------------------------------------
  Out_to_WWTP           99.32     0.214     0.271       9.652
  -----------------------------------------------------------
  System                99.32     0.214     0.271       9.652
  
  
  ********************
  Link Flow Summary
  ********************
  
  -----------------------------------------------------------------------------
                                 Maximum  Time of Max   Maximum    Max/    Max/
                                  |Flow|   Occurrence   |Veloc|    Full    Full
  Link                 Type          CMS  days hr:min     m/sec    Flow   Depth
  -----------------------------------------------------------------------------
  C1                   CONDUIT     0.032     0  10:51      0.98    0.01    0.11
  C10                  CONDUIT     0.133     0  08:16      1.59    0.01    0.54
  C11                  CONDUIT     0.256     0  12:21      1.93    0.01    0.09
  C12                  CONDUIT     0.170     0  11:24      1.56    0.01    0.08
  C13                  CONDUIT     0.250     0  06:25      1.39    0.01    0.54
  C14                  CONDUIT     0.271     0  08:08      2.08    0.02    0.09
  C15                  CONDUIT     0.089     0  04:15      1.89    0.28    0.33
  C16                  CONDUIT     0.088     0  04:18      1.05    0.01    0.06
  C17                  CONDUIT     0.152     0  04:17      1.58    0.01    0.07
  C18                  CONDUIT     0.141     0  02:10      4.72    0.01    0.52
  C19                  CONDUIT     0.126     0  09:52      1.56    0.04    0.18
  C2                   CONDUIT     0.059     0  07:37      1.72    0.07    0.22
  C20                  CONDUIT     0.145     0  02:11      3.71    0.00    0.07
  C21                  CONDUIT     0.048     0  02:11      1.33    0.27    0.29
  C22                  CONDUIT     0.048     0  02:15      0.92    0.02    0.18
  C23                  CONDUIT     0.387     0  09:10      1.20    0.04    0.57
  C3                   CONDUIT     0.173     0  11:48      2.14    0.07    0.17
  C4                   CONDUIT     0.074     0  02:12      4.05    0.02    0.55
  C5                   CONDUIT     0.031     0  02:11      1.16    0.53    0.57
  C6                   CONDUIT     0.031     0  02:17      1.11    0.49    0.42
  C7                   CONDUIT     0.069     0  02:16      1.38    0.02    0.55
  C8                   CONDUIT     0.024     0  02:55      0.99    0.31    0.35
  C9                   CONDUIT     0.024     0  02:56      0.77    0.08    0.22
  V1                   ORIFICE     0.271     0  08:07                      1.00
  V2                   ORIFICE     0.127     0  09:45                      1.00
  V3                   ORIFICE     0.171     0  11:45                      1.00
  V4                   ORIFICE     0.060     0  07:30                      1.00
  V5                   ORIFICE     0.032     0  10:45                      1.00
  V6                   ORIFICE     0.175     0  11:05                      1.00
  
  
  ***************************
  Flow Classification Summary
  ***************************
  
  -------------------------------------------------------------------------------------
                      Adjusted    ---------- Fraction of Time in Flow Class ---------- 
                       /Actual         Up    Down  Sub   Sup   Up    Down  Norm  Inlet 
  Conduit               Length    Dry  Dry   Dry   Crit  Crit  Crit  Crit  Ltd   Ctrl  
  -------------------------------------------------------------------------------------
  C1                      1.00   0.00  0.00  0.00  0.47  0.53  0.00  0.00  0.96  0.00
  C10                     1.00   0.00  0.00  0.00  0.96  0.04  0.00  0.00  0.98  0.00
  C11                     1.00   0.00  0.00  0.00  0.24  0.76  0.00  0.00  1.00  0.00
  C12                     1.00   0.00  0.00  0.00  0.62  0.38  0.00  0.00  0.89  0.00
  C13                     1.00   0.00  0.00  0.00  0.90  0.10  0.00  0.00  0.94  0.00
  C14                     1.00   0.00  0.00  0.00  0.01  0.99  0.00  0.00  0.28  0.00
  C15                     1.00   0.02  0.00  0.00  0.00  0.97  0.00  0.00  0.00  0.00
  C16                     1.00   0.00  0.02  0.00  0.16  0.81  0.00  0.00  0.16  0.00
  C17                     1.00   0.00  0.00  0.00  0.15  0.85  0.00  0.00  0.98  0.00
  C18                     1.00   0.00  0.00  0.00  0.96  0.04  0.00  0.00  0.98  0.00
  C19                     1.00   0.00  0.00  0.00  0.83  0.17  0.00  0.00  1.00  0.00
  C2                      1.00   0.00  0.00  0.00  0.39  0.60  0.00  0.00  0.98  0.00
  C20                     1.00   0.00  0.00  0.00  0.47  0.53  0.00  0.00  0.99  0.00
  C21                     1.00   0.00  0.00  0.00  0.00  1.00  0.00  0.00  0.00  0.00
  C22                     1.00   0.00  0.00  0.00  0.97  0.03  0.00  0.00  1.00  0.00
  C23                     1.00   0.00  0.00  0.00  0.94  0.06  0.00  0.00  0.97  0.00
  C3                      1.00   0.00  0.00  0.00  0.05  0.95  0.00  0.00  0.49  0.00
  C4                      1.00   0.00  0.00  0.00  0.97  0.03  0.00  0.00  0.99  0.00
  C5                      1.00   0.00  0.00  0.00  0.85  0.15  0.00  0.00  0.99  0.00
  C6                      1.00   0.00  0.00  0.00  0.01  0.99  0.00  0.00  0.00  0.00
  C7                      1.00   0.00  0.00  0.00  0.96  0.04  0.00  0.00  0.98  0.00
  C8                      1.00   0.00  0.00  0.00  0.00  1.00  0.00  0.00  0.00  0.00
  C9                      1.00   0.00  0.00  0.00  1.00  0.00  0.00  0.00  1.00  0.00
  
  
  *************************
  Conduit Surcharge Summary
  *************************
  
  ----------------------------------------------------------------------------
                                                           Hours        Hours 
                         --------- Hours Full --------   Above Full   Capacity
  Conduit                Both Ends  Upstream  Dnstream   Normal Flow   Limited
  ----------------------------------------------------------------------------
  C10                         0.01      0.01      9.57      0.01         0.01
  C13                         0.01      0.01      6.94      0.01         0.01
  C18                         0.01      0.01      9.55      0.01         0.01
  C23                         0.01      0.01     10.37      0.01         0.01
  C4                          0.01      0.01     10.60      0.01         0.01
  C7                          0.01      0.01     10.55      0.01         0.01
  

  Analysis begun on:  Sun Aug 21 16:49:54 2022
  Analysis ended on:  Sun Aug 21 16:49:54 2022
  Total elapsed time: < 1 sec