
  EPA STORM WATER MANAGEMENT MODEL - VERSION 5.1 (Build 5.3.0.dev0)
  --------------------------------------------------------------

  
  *********************************************************
  NOTE: The summary statistics displayed in this report are
  based on results found at every computational time step,  
  not just on results from each reporting time step.
  *********************************************************
  
  ****************
  Analysis Options
  ****************
  Flow Units ............... CMS
  Process Models:
    Rainfall/Runoff ........ YES
    RDII ................... NO
    Snowmelt ............... NO
    Groundwater ............ NO
    Flow Routing ........... YES
    Ponding Allowed ........ NO
    Water Quality .......... NO
  Infiltration Method ...... HORTON
  Flow Routing Method ...... DYNWAVE
  Surcharge Method ......... EXTRAN
  Starting Date ............ 08/26/2002 06:25:00
  Ending Date .............. 08/26/2002 11:05:00
  Antecedent Dry Days ...... 0.0
  Report Time Step ......... 00:05:00
  Wet Time Step ............ 00:05:00
  Dry Time Step ............ 01:00:00
  Routing Time Step ........ 30.00 sec
  Variable Time Step ....... YES
  Maximum Trials ........... 8
  Number of Threads ........ 1
  Head Tolerance ........... 0.001500 m
  
  
  **************************        Volume         Depth
  Runoff Quantity Continuity     hectare-m            mm
  **************************     ---------       -------
  Total Precipitation ......         0.946         5.247
  Evaporation Loss .........         0.000         0.000
  Infiltration Loss ........         0.000         0.000
  Surface Runoff ...........         0.905         5.020
  Final Storage ............         0.043         0.239
  Continuity Error (%) .....        -0.224
  
  
  **************************        Volume        Volume
  Flow Routing Continuity        hectare-m      10^6 ltr
  **************************     ---------     ---------
  Dry Weather Inflow .......         0.208         2.077
  Wet Weather Inflow .......         0.903         9.034
  Groundwater Inflow .......         0.000         0.000
  RDII Inflow ..............         0.000         0.000
  External Inflow ..........         0.000         0.000
  External Outflow .........         0.331         3.307
  Flooding Loss ............         0.023         0.226
  Evaporation Loss .........         0.000         0.000
  Exfiltration Loss ........         0.000         0.000
  Initial Stored Volume ....         0.000         0.000
  Final Stored Volume ......         0.592         5.915
  Continuity Error (%) .....        14.965
  
  
  *************************
  Highest Continuity Errors
  *************************
  Node T2 (34.63%)
  Node T5 (31.48%)
  Node T6 (27.74%)
  Node T3 (25.78%)
  Node T4 (20.53%)
  
  
  ***************************
  Time-Step Critical Elements
  ***************************
  Link C15 (60.62%)
  
  
  ********************************
  Highest Flow Instability Indexes
  ********************************
  Link V3 (7)
  Link V6 (6)
  Link C3 (6)
  Link C11 (6)
  Link C23 (6)
  
  
  *************************
  Routing Time Step Summary
  *************************
  Minimum Time Step           :     0.30 sec
  Average Time Step           :    24.54 sec
  Maximum Time Step           :    30.00 sec
  Percent in Steady State     :     5.18
  Average Iterations per Step :     2.06
  Percent Not Converging      :     0.00
  
  
  ***************************
  Subcatchment Runoff Summary
  ***************************
  
  ------------------------------------------------------------------------------------------------------------------------------
                            Total      Total      Total      Total     Imperv       Perv      Total       Total     Peak  Runoff
                           Precip      Runon       Evap      Infil     Runoff     Runoff     Runoff      Runoff   Runoff   Coeff
  Subcatchment                 mm         mm         mm         mm         mm         mm         mm    10^6 ltr      CMS
  ------------------------------------------------------------------------------------------------------------------------------
  SC01                       5.63       0.00       0.00       0.00       5.49       0.00       5.49        1.81     0.31   0.976
  SC010                      5.63       0.00       0.00       0.00       5.43       0.00       5.43        0.64     0.11   0.964
  SC02                       5.21       0.00       0.00       0.00       5.06       0.00       5.06        1.15     0.23   0.971
  SC03                       4.95       0.00       0.00       0.00       4.86       0.00       4.86        0.87     0.22   0.982
  SC04                       5.21       0.00       0.00       0.00       4.82       0.00       4.82        0.33     0.06   0.926
  SC05                       5.63       0.00       0.00       0.00       5.48       0.00       5.48        0.85     0.15   0.973
  SC06                       5.04       0.00       0.00       0.00       4.59       0.00       4.59        1.50     0.21   0.912
  SC07                       5.21       0.00       0.00       0.00       4.82       0.00       4.82        0.23     0.04   0.926
  SC08                       4.95       0.00       0.00       0.00       4.74       0.00       4.74        1.33     0.29   0.957
  SC09                       5.04       0.00       0.00       0.00       4.79       0.00       4.79        0.33     0.05   0.950
  
  
  ******************
  Node Depth Summary
  ******************
  
  ---------------------------------------------------------------------------------
                                 Average  Maximum  Maximum  Time of Max    Reported
                                   Depth    Depth      HGL   Occurrence   Max Depth
  Node                 Type       Meters   Meters   Meters  days hr:min      Meters
  ---------------------------------------------------------------------------------
  CSO10                JUNCTION     0.16     0.27    30.27     0  01:20        0.27
  CSO7                 JUNCTION     0.11     0.18    34.18     0  02:30        0.17
  CSO8                 JUNCTION     0.17     0.37    32.37     0  02:25        0.37
  CSO9                 JUNCTION     0.13     0.22    40.22     0  01:11        0.22
  J1                   JUNCTION     0.09     0.14    34.14     0  01:20        0.14
  J10                  JUNCTION     0.12     0.22    29.22     0  02:26        0.21
  J11                  JUNCTION     0.13     0.23    31.23     0  02:26        0.23
  J12                  JUNCTION     0.16     0.26    26.26     0  02:26        0.26
  J13                  JUNCTION     0.08     0.13    29.13     0  01:15        0.13
  J14                  JUNCTION     0.10     0.17    20.17     0  04:37        0.17
  J15                  JUNCTION     0.18     0.25    15.25     0  01:23        0.25
  J16                  JUNCTION     0.09     0.14    30.14     0  01:20        0.14
  J17                  JUNCTION     0.06     0.12    20.12     0  03:30        0.12
  J18                  JUNCTION     0.07     0.12    29.12     0  01:21        0.12
  J19                  JUNCTION     0.14     0.17     8.17     0  02:31        0.17
  J2                   JUNCTION     0.06     0.07    25.07     0  03:19        0.07
  J3                   JUNCTION     0.10     0.15    18.15     0  04:00        0.15
  J4                   JUNCTION     0.14     0.21    33.21     0  02:33        0.21
  J5                   JUNCTION     0.07     0.11    32.11     0  02:32        0.11
  J6                   JUNCTION     0.06     0.10    25.10     0  03:27        0.10
  J7                   JUNCTION     0.10     0.15    39.15     0  01:15        0.15
  J8                   JUNCTION     0.13     0.18    36.18     0  01:15        0.18
  J9                   JUNCTION     0.10     0.16    29.16     0  04:08        0.16
  Out_to_WWTP          OUTFALL      0.14     0.17     6.17     0  03:22        0.17
  T1                   STORAGE      3.31     5.00    15.00     0  02:30        5.00
  T2                   STORAGE      1.43     2.46    23.46     0  03:25        2.46
  T3                   STORAGE      1.64     3.20    25.20     0  04:35        3.20
  T4                   STORAGE      1.44     2.69    29.69     0  03:20        2.69
  T5                   STORAGE      2.43     3.77    30.77     0  03:17        3.77
  T6                   STORAGE      2.88     4.68    35.68     0  03:15        4.68
  
  
  *******************
  Node Inflow Summary
  *******************
  
  -------------------------------------------------------------------------------------------------
                                  Maximum  Maximum                  Lateral       Total        Flow
                                  Lateral    Total  Time of Max      Inflow      Inflow     Balance
                                   Inflow   Inflow   Occurrence      Volume      Volume       Error
  Node                 Type           CMS      CMS  days hr:min    10^6 ltr    10^6 ltr     Percent
  -------------------------------------------------------------------------------------------------
  CSO10                JUNCTION     0.109    0.109     0  01:20       0.709        0.71       0.051
  CSO7                 JUNCTION     0.048    0.048     0  02:30        0.38        0.38       0.219
  CSO8                 JUNCTION     0.300    0.300     0  02:25         1.5         1.5       0.014
  CSO9                 JUNCTION     0.060    0.060     0  01:10       0.432       0.432       0.140
  J1                   JUNCTION     0.163    0.163     0  01:20        1.15        1.15       0.124
  J10                  JUNCTION     0.231    0.513     0  02:25        1.07        2.57       0.246
  J11                  JUNCTION     0.000    0.299     0  02:25           0         1.5       0.301
  J12                  JUNCTION     0.000    0.638     0  02:25           0        3.73       0.566
  J13                  JUNCTION     0.239    0.239     0  01:15        1.39        1.39      -0.253
  J14                  JUNCTION     0.000    0.152     0  04:35           0        1.09       2.072
  J15                  JUNCTION     0.000    0.552     0  01:21           0        5.09       1.665
  J16                  JUNCTION     0.330    0.330     0  01:20         2.1         2.1       0.037
  J17                  JUNCTION     0.000    0.098     0  03:25           0       0.457      -6.101
  J18                  JUNCTION     0.000    0.109     0  01:20           0        0.71       0.156
  J19                  JUNCTION     0.000    0.271     0  02:30           0        3.32       0.376
  J2                   JUNCTION     0.000    0.034     0  03:17           0       0.423       1.168
  J3                   JUNCTION     0.000    0.242     0  04:38           0        1.86       3.471
  J4                   JUNCTION     0.000    0.048     0  02:30           0       0.379       1.313
  J5                   JUNCTION     0.061    0.105     0  02:30       0.399       0.774       0.236
  J6                   JUNCTION     0.000    0.058     0  03:20           0       0.375       1.549
  J7                   JUNCTION     0.000    0.060     0  01:11           0       0.431       0.954
  J8                   JUNCTION     0.241    0.301     0  01:15        1.98        2.41       0.315
  J9                   JUNCTION     0.000    0.169     0  03:15           0        1.24       6.129
  Out_to_WWTP          OUTFALL      0.000    0.271     0  02:32           0        3.31       0.000
  T1                   STORAGE      0.000    0.536     0  01:23           0        5.01      19.172
  T2                   STORAGE      0.000    0.238     0  01:15           0         1.4      52.975
  T3                   STORAGE      0.000    0.608     0  02:26           0        3.71      34.743
  T4                   STORAGE      0.000    0.105     0  02:32           0       0.772      25.839
  T5                   STORAGE      0.000    0.162     0  01:20           0        1.14      45.938
  T6                   STORAGE      0.000    0.299     0  01:16           0         2.4      38.389
  
  
  **********************
  Node Surcharge Summary
  **********************
  
  No nodes were surcharged.
  
  
  *********************
  Node Flooding Summary
  *********************
  
  Flooding refers to all water that overflows a node, whether it ponds or not.
  --------------------------------------------------------------------------
                                                             Total   Maximum
                                 Maximum   Time of Max       Flood    Ponded
                        Hours       Rate    Occurrence      Volume     Depth
  Node                 Flooded       CMS   days hr:min    10^6 ltr    Meters
  --------------------------------------------------------------------------
  T1                      0.69     0.222      0  02:31       0.225     0.000
  
  
  **********************
  Storage Volume Summary
  **********************
  
  --------------------------------------------------------------------------------------------------
                         Average     Avg  Evap Exfil       Maximum     Max    Time of Max    Maximum
                          Volume    Pcnt  Pcnt  Pcnt        Volume    Pcnt     Occurrence    Outflow
  Storage Unit           1000 m3    Full  Loss  Loss       1000 m3    Full    days hr:min        CMS
  --------------------------------------------------------------------------------------------------
  T1                       0.464      66     0     0         0.700     100       0  02:30      0.271
  T2                       0.287      29     0     0         0.492      49       0  03:25      0.098
  T3                       0.852      33     0     0         1.666      64       0  04:35      0.152
  T4                       0.144      29     0     0         0.269      54       0  03:20      0.058
  T5                       0.243      49     0     0         0.377      75       0  03:17      0.034
  T6                       0.346      58     0     0         0.562      94       0  03:15      0.169
  
  
  ***********************
  Outfall Loading Summary
  ***********************
  
  -----------------------------------------------------------
                         Flow       Avg       Max       Total
                         Freq      Flow      Flow      Volume
  Outfall Node           Pcnt       CMS       CMS    10^6 ltr
  -----------------------------------------------------------
  Out_to_WWTP           98.38     0.203     0.271       3.307
  -----------------------------------------------------------
  System                98.38     0.203     0.271       3.307
  
  
  ********************
  Link Flow Summary
  ********************
  
  -----------------------------------------------------------------------------
                                 Maximum  Time of Max   Maximum    Max/    Max/
                                  |Flow|   Occurrence   |Veloc|    Full    Full
  Link                 Type          CMS  days hr:min     m/sec    Flow   Depth
  -----------------------------------------------------------------------------
  C1                   CONDUIT     0.034     0  03:19      1.04    0.01    0.11
  C10                  CONDUIT     0.299     0  01:16      1.59    0.03    0.56
  C11                  CONDUIT     0.237     0  04:00      1.91    0.01    0.09
  C12                  CONDUIT     0.168     0  03:24      1.50    0.01    0.10
  C13                  CONDUIT     0.608     0  02:26      1.54    0.04    0.56
  C14                  CONDUIT     0.271     0  02:32      2.08    0.02    0.09
  C15                  CONDUIT     0.299     0  02:25      2.65    0.95    0.66
  C16                  CONDUIT     0.290     0  02:27      1.50    0.03    0.11
  C17                  CONDUIT     0.503     0  02:26      2.39    0.02    0.12
  C18                  CONDUIT     0.238     0  01:15      4.72    0.01    0.53
  C19                  CONDUIT     0.096     0  03:30      1.38    0.03    0.18
  C2                   CONDUIT     0.058     0  03:27      1.61    0.07    0.21
  C20                  CONDUIT     0.328     0  01:20      3.71    0.01    0.10
  C21                  CONDUIT     0.109     0  01:20      1.65    0.62    0.45
  C22                  CONDUIT     0.108     0  01:21      1.25    0.05    0.23
  C23                  CONDUIT     0.536     0  01:23      1.40    0.06    0.58
  C3                   CONDUIT     0.153     0  04:38      2.03    0.06    0.16
  C4                   CONDUIT     0.162     0  01:20      4.05    0.04    0.57
  C5                   CONDUIT     0.048     0  02:30      1.18    0.82    0.74
  C6                   CONDUIT     0.046     0  02:34      1.22    0.73    0.53
  C7                   CONDUIT     0.105     0  02:32      1.38    0.03    0.56
  C8                   CONDUIT     0.060     0  01:11      1.26    0.76    0.58
  C9                   CONDUIT     0.060     0  01:15      1.05    0.20    0.33
  V1                   ORIFICE     0.271     0  02:30                      1.00
  V2                   ORIFICE     0.098     0  03:25                      1.00
  V3                   ORIFICE     0.152     0  04:35                      1.00
  V4                   ORIFICE     0.058     0  03:20                      1.00
  V5                   ORIFICE     0.034     0  03:17                      1.00
  V6                   ORIFICE     0.169     0  03:15                      1.00
  
  
  ***************************
  Flow Classification Summary
  ***************************
  
  -------------------------------------------------------------------------------------
                      Adjusted    ---------- Fraction of Time in Flow Class ---------- 
                       /Actual         Up    Down  Sub   Sup   Up    Down  Norm  Inlet 
  Conduit               Length    Dry  Dry   Dry   Crit  Crit  Crit  Crit  Ltd   Ctrl  
  -------------------------------------------------------------------------------------
  C1                      1.00   0.00  0.00  0.00  0.28  0.71  0.00  0.00  0.92  0.00
  C10                     1.00   0.00  0.00  0.00  0.92  0.08  0.00  0.00  0.95  0.00
  C11                     1.00   0.00  0.00  0.00  0.58  0.42  0.00  0.00  1.00  0.00
  C12                     1.00   0.00  0.00  0.00  0.76  0.24  0.00  0.00  0.89  0.00
  C13                     1.00   0.00  0.00  0.00  0.79  0.21  0.00  0.00  0.82  0.00
  C14                     1.00   0.01  0.00  0.00  0.01  0.97  0.00  0.00  0.29  0.00
  C15                     1.00   0.00  0.00  0.00  0.00  1.00  0.00  0.00  0.00  0.00
  C16                     1.00   0.00  0.00  0.00  0.19  0.81  0.00  0.00  0.13  0.00
  C17                     1.00   0.00  0.00  0.00  0.16  0.84  0.00  0.00  0.95  0.00
  C18                     1.00   0.00  0.00  0.00  0.86  0.14  0.00  0.00  0.95  0.00
  C19                     1.00   0.00  0.00  0.00  0.92  0.07  0.00  0.00  1.00  0.00
  C2                      1.00   0.00  0.00  0.00  0.47  0.53  0.00  0.00  0.93  0.00
  C20                     1.00   0.00  0.00  0.00  0.32  0.68  0.00  0.00  0.97  0.00
  C21                     1.00   0.00  0.00  0.00  0.00  1.00  0.00  0.00  0.00  0.00
  C22                     1.00   0.00  0.00  0.00  0.62  0.38  0.00  0.00  1.00  0.00
  C23                     1.00   0.00  0.00  0.00  0.87  0.12  0.00  0.00  0.90  0.00
  C3                      1.00   0.00  0.01  0.00  0.09  0.90  0.00  0.00  0.46  0.00
  C4                      1.00   0.00  0.00  0.00  0.92  0.08  0.00  0.00  0.96  0.00
  C5                      1.00   0.00  0.00  0.00  0.82  0.18  0.00  0.00  0.97  0.00
  C6                      1.00   0.00  0.00  0.00  0.01  0.98  0.00  0.00  0.01  0.00
  C7                      1.00   0.00  0.00  0.00  0.86  0.14  0.00  0.00  0.94  0.00
  C8                      1.00   0.00  0.00  0.00  0.00  1.00  0.00  0.00  0.00  0.00
  C9                      1.00   0.00  0.00  0.00  1.00  0.00  0.00  0.00  1.00  0.00
  
  
  *************************
  Conduit Surcharge Summary
  *************************
  
  ----------------------------------------------------------------------------
                                                           Hours        Hours 
                         --------- Hours Full --------   Above Full   Capacity
  Conduit                Both Ends  Upstream  Dnstream   Normal Flow   Limited
  ----------------------------------------------------------------------------
  C10                         0.01      0.01      3.43      0.01         0.01
  C13                         0.01      0.01      2.22      0.01         0.01
  C18                         0.01      0.01      2.12      0.01         0.01
  C23                         0.01      0.01      3.43      0.01         0.01
  C4                          0.01      0.01      3.51      0.01         0.01
  C7                          0.01      0.01      2.84      0.01         0.01
  

  Analysis begun on:  Sun Aug 21 16:50:03 2022
  Analysis ended on:  Sun Aug 21 16:50:04 2022
  Total elapsed time: 00:00:01