
  EPA STORM WATER MANAGEMENT MODEL - VERSION 5.1 (Build 5.3.0.dev0)
  --------------------------------------------------------------

  
  *********************************************************
  NOTE: The summary statistics displayed in this report are
  based on results found at every computational time step,  
  not just on results from each reporting time step.
  *********************************************************
  
  ****************
  Analysis Options
  ****************
  Flow Units ............... CMS
  Process Models:
    Rainfall/Runoff ........ YES
    RDII ................... NO
    Snowmelt ............... NO
    Groundwater ............ NO
    Flow Routing ........... YES
    Ponding Allowed ........ NO
    Water Quality .......... NO
  Infiltration Method ...... HORTON
  Flow Routing Method ...... DYNWAVE
  Surcharge Method ......... EXTRAN
  Starting Date ............ 10/23/2004 17:55:00
  Ending Date .............. 10/23/2004 21:05:00
  Antecedent Dry Days ...... 0.0
  Report Time Step ......... 00:05:00
  Wet Time Step ............ 00:05:00
  Dry Time Step ............ 01:00:00
  Routing Time Step ........ 30.00 sec
  Variable Time Step ....... YES
  Maximum Trials ........... 8
  Number of Threads ........ 1
  Head Tolerance ........... 0.001500 m
  
  
  **************************        Volume         Depth
  Runoff Quantity Continuity     hectare-m            mm
  **************************     ---------       -------
  Total Precipitation ......         1.360         7.549
  Evaporation Loss .........         0.000         0.000
  Infiltration Loss ........         0.000         0.000
  Surface Runoff ...........         1.340         7.437
  Final Storage ............         0.047         0.263
  Continuity Error (%) .....        -1.994
  
  
  **************************        Volume        Volume
  Flow Routing Continuity        hectare-m      10^6 ltr
  **************************     ---------     ---------
  Dry Weather Inflow .......         0.103         1.031
  Wet Weather Inflow .......         1.340        13.402
  Groundwater Inflow .......         0.000         0.000
  RDII Inflow ..............         0.000         0.000
  External Inflow ..........         0.000         0.000
  External Outflow .........         0.249         2.491
  Flooding Loss ............         0.622         6.217
  Evaporation Loss .........         0.000         0.000
  Exfiltration Loss ........         0.000         0.000
  Initial Stored Volume ....         0.000         0.000
  Final Stored Volume ......         0.475         4.752
  Continuity Error (%) .....         6.748
  
  
  *************************
  Highest Continuity Errors
  *************************
  Node T4 (48.79%)
  Node T2 (48.57%)
  Node T6 (45.58%)
  Node T3 (38.40%)
  Node T5 (16.46%)
  
  
  ***************************
  Time-Step Critical Elements
  ***************************
  Link C15 (23.04%)
  Link C21 (20.72%)
  Link C8 (5.29%)
  Link C5 (2.11%)
  
  
  ********************************
  Highest Flow Instability Indexes
  ********************************
  Link V3 (7)
  Link V6 (7)
  Link C12 (6)
  Link C11 (6)
  Link C2 (6)
  
  
  *************************
  Routing Time Step Summary
  *************************
  Minimum Time Step           :     0.40 sec
  Average Time Step           :    23.67 sec
  Maximum Time Step           :    30.00 sec
  Percent in Steady State     :    23.99
  Average Iterations per Step :     3.98
  Percent Not Converging      :    12.84
  
  
  ***************************
  Subcatchment Runoff Summary
  ***************************
  
  ------------------------------------------------------------------------------------------------------------------------------
                            Total      Total      Total      Total     Imperv       Perv      Total       Total     Peak  Runoff
                           Precip      Runon       Evap      Infil     Runoff     Runoff     Runoff      Runoff   Runoff   Coeff
  Subcatchment                 mm         mm         mm         mm         mm         mm         mm    10^6 ltr      CMS
  ------------------------------------------------------------------------------------------------------------------------------
  SC01                      13.97       0.00       0.00       0.00      14.20       0.00      14.20        4.68     5.67   1.016
  SC010                     13.97       0.00       0.00       0.00      14.03       0.00      14.03        1.65     1.69   1.004
  SC02                       4.46       0.00       0.00       0.00       4.35       0.00       4.35        0.99     0.82   0.975
  SC03                       3.32       0.00       0.00       0.00       3.27       0.00       3.27        0.59     0.43   0.984
  SC04                       4.46       0.00       0.00       0.00       4.06       0.00       4.06        0.28     0.14   0.910
  SC05                      13.97       0.00       0.00       0.00      14.15       0.00      14.15        2.21     2.56   1.013
  SC06                       5.35       0.00       0.00       0.00       4.85       0.00       4.85        1.58     0.50   0.907
  SC07                       4.46       0.00       0.00       0.00       4.06       0.00       4.06        0.19     0.10   0.910
  SC08                       3.32       0.00       0.00       0.00       3.14       0.00       3.14        0.88     0.46   0.945
  SC09                       5.35       0.00       0.00       0.00       5.10       0.00       5.10        0.35     0.13   0.953
  
  
  ******************
  Node Depth Summary
  ******************
  
  ---------------------------------------------------------------------------------
                                 Average  Maximum  Maximum  Time of Max    Reported
                                   Depth    Depth      HGL   Occurrence   Max Depth
  Node                 Type       Meters   Meters   Meters  days hr:min      Meters
  ---------------------------------------------------------------------------------
  CSO10                JUNCTION     0.36     1.00    31.00     0  00:43        1.00
  CSO7                 JUNCTION     0.22     1.20    35.20     0  00:53        1.20
  CSO8                 JUNCTION     0.25     2.00    34.00     0  00:35        2.00
  CSO9                 JUNCTION     0.29     2.00    42.00     0  00:48        2.00
  J1                   JUNCTION     0.14     0.65    34.65     0  00:50        0.58
  J10                  JUNCTION     0.12     0.27    29.27     0  00:37        0.27
  J11                  JUNCTION     0.12     0.28    31.28     0  00:37        0.27
  J12                  JUNCTION     0.16     0.30    26.30     0  00:39        0.30
  J13                  JUNCTION     0.08     0.24    29.24     0  00:55        0.23
  J14                  JUNCTION     0.09     0.15    20.15     0  03:03        0.14
  J15                  JUNCTION     0.28     0.95    15.95     0  00:54        0.94
  J16                  JUNCTION     0.14     0.56    30.56     0  00:50        0.54
  J17                  JUNCTION     0.06     0.11    20.11     0  02:17        0.11
  J18                  JUNCTION     0.10     0.16    29.16     0  01:12        0.16
  J19                  JUNCTION     0.15     0.17     8.17     0  00:52        0.17
  J2                   JUNCTION     0.07     0.08    25.08     0  01:59        0.08
  J3                   JUNCTION     0.09     0.13    18.13     0  03:05        0.13
  J4                   JUNCTION     0.18     0.93    33.93     0  00:56        0.75
  J5                   JUNCTION     0.08     0.15    32.15     0  00:57        0.15
  J6                   JUNCTION     0.05     0.09    25.09     0  02:55        0.09
  J7                   JUNCTION     0.12     0.22    39.22     0  00:53        0.22
  J8                   JUNCTION     0.15     0.26    36.26     0  00:51        0.25
  J9                   JUNCTION     0.09     0.16    29.16     0  02:58        0.16
  Out_to_WWTP          OUTFALL      0.14     0.17     6.17     0  00:53        0.17
  T1                   STORAGE      3.66     5.00    15.00     0  00:51        5.00
  T2                   STORAGE      1.02     1.63    22.63     0  02:10        1.63
  T3                   STORAGE      1.08     1.77    23.77     0  03:09        1.74
  T4                   STORAGE      0.82     1.51    28.51     0  02:50        1.51
  T5                   STORAGE      3.65     5.00    32.00     0  00:51        5.00
  T6                   STORAGE      3.03     4.37    35.37     0  02:35        4.37
  
  
  *******************
  Node Inflow Summary
  *******************
  
  -------------------------------------------------------------------------------------------------
                                  Maximum  Maximum                  Lateral       Total        Flow
                                  Lateral    Total  Time of Max      Inflow      Inflow     Balance
                                   Inflow   Inflow   Occurrence      Volume      Volume       Error
  Node                 Type           CMS      CMS  days hr:min    10^6 ltr    10^6 ltr     Percent
  -------------------------------------------------------------------------------------------------
  CSO10                JUNCTION     1.695    1.695     0  00:50        1.69         1.7      -1.049
  CSO7                 JUNCTION     0.106    0.106     0  00:55       0.274       0.276      -1.037
  CSO8                 JUNCTION     0.456    0.456     0  00:35       0.881       0.884      -0.563
  CSO9                 JUNCTION     0.140    0.140     0  00:50       0.406       0.408      -1.215
  J1                   JUNCTION     2.571    2.571     0  00:50        2.37        2.38      -1.760
  J10                  JUNCTION     0.439    0.835     0  00:35       0.695        1.63      -3.084
  J11                  JUNCTION     0.000    0.456     0  00:35           0       0.889      -4.949
  J12                  JUNCTION     0.000    0.880     0  00:37           0        2.43      -1.155
  J13                  JUNCTION     0.832    0.832     0  00:55        1.12        1.13      -4.751
  J14                  JUNCTION     0.000    0.111     0  03:05           0       0.593       1.195
  J15                  JUNCTION     0.000    5.829     0  00:50           0        7.27      -7.968
  J16                  JUNCTION     5.679    5.679     0  00:50        4.84        4.86      -1.925
  J17                  JUNCTION     0.000    0.080     0  02:10           0       0.322      -0.366
  J18                  JUNCTION     0.000    0.202     0  01:12           0       0.865      -4.182
  J19                  JUNCTION     0.000    0.271     0  00:52           0         2.5       0.478
  J2                   JUNCTION     0.000    0.039     0  00:52           0       0.366       1.432
  J3                   JUNCTION     0.000    0.192     0  03:05           0        1.12       3.669
  J4                   JUNCTION     0.000    0.085     0  00:54           0       0.267      -7.848
  J5                   JUNCTION     0.147    0.210     0  00:56       0.316       0.607      -3.437
  J6                   JUNCTION     0.000    0.044     0  02:50           0       0.179       2.689
  J7                   JUNCTION     0.000    0.126     0  00:52           0       0.411      -5.420
  J8                   JUNCTION     0.528    0.635     0  00:50        1.84        2.28      -2.741
  J9                   JUNCTION     0.000    0.163     0  02:35           0       0.807       7.973
  Out_to_WWTP          OUTFALL      0.000    0.271     0  00:53           0        2.49       0.000
  T1                   STORAGE      0.000    3.965     0  00:54           0         7.9       8.763
  T2                   STORAGE      0.000    0.813     0  00:55           0        1.19      94.436
  T3                   STORAGE      0.000    0.856     0  00:39           0        2.46      62.338
  T4                   STORAGE      0.000    0.207     0  00:58           0       0.629      95.293
  T5                   STORAGE      0.000    2.425     0  00:50           0        2.42      19.697
  T6                   STORAGE      0.000    0.616     0  00:51           0        2.34      83.767
  
  
  **********************
  Node Surcharge Summary
  **********************
  
  Surcharging occurs when water rises above the top of the highest conduit.
  ---------------------------------------------------------------------
                                               Max. Height   Min. Depth
                                   Hours       Above Crown    Below Rim
  Node                 Type      Surcharged         Meters       Meters
  ---------------------------------------------------------------------
  CSO10                JUNCTION        0.56          0.560        0.000
  CSO7                 JUNCTION        0.31          0.945        0.000
  CSO8                 JUNCTION        0.22          1.547        0.000
  CSO9                 JUNCTION        0.41          1.682        0.000
  J4                   JUNCTION        0.31          0.628        1.072
  
  
  *********************
  Node Flooding Summary
  *********************
  
  Flooding refers to all water that overflows a node, whether it ponds or not.
  --------------------------------------------------------------------------
                                                             Total   Maximum
                                 Maximum   Time of Max       Flood    Ponded
                        Hours       Rate    Occurrence      Volume     Depth
  Node                 Flooded       CMS   days hr:min    10^6 ltr    Meters
  --------------------------------------------------------------------------
  CSO10                   0.50     1.471      0  00:50       0.850     0.000
  CSO7                    0.22     0.031      0  00:57       0.012     0.000
  CSO8                    0.01     0.001      0  00:35       0.000     0.000
  CSO9                    0.06     0.014      0  00:50       0.001     0.000
  T1                      1.28     3.693      0  00:54       4.159     0.000
  T5                      1.12     2.216      0  00:51       1.190     0.000
  
  
  **********************
  Storage Volume Summary
  **********************
  
  --------------------------------------------------------------------------------------------------
                         Average     Avg  Evap Exfil       Maximum     Max    Time of Max    Maximum
                          Volume    Pcnt  Pcnt  Pcnt        Volume    Pcnt     Occurrence    Outflow
  Storage Unit           1000 m3    Full  Loss  Loss       1000 m3    Full    days hr:min        CMS
  --------------------------------------------------------------------------------------------------
  T1                       0.513      73     0     0         0.700     100       0  00:51      0.271
  T2                       0.204      20     0     0         0.326      33       0  02:10      0.080
  T3                       0.560      22     0     0         0.922      35       0  03:09      0.111
  T4                       0.082      16     0     0         0.151      30       0  02:50      0.044
  T5                       0.365      73     0     0         0.500     100       0  00:51      0.039
  T6                       0.364      61     0     0         0.525      87       0  02:35      0.163
  
  
  ***********************
  Outfall Loading Summary
  ***********************
  
  -----------------------------------------------------------
                         Flow       Avg       Max       Total
                         Freq      Flow      Flow      Volume
  Outfall Node           Pcnt       CMS       CMS    10^6 ltr
  -----------------------------------------------------------
  Out_to_WWTP           97.67     0.218     0.271       2.491
  -----------------------------------------------------------
  System                97.67     0.218     0.271       2.491
  
  
  ********************
  Link Flow Summary
  ********************
  
  -----------------------------------------------------------------------------
                                 Maximum  Time of Max   Maximum    Max/    Max/
                                  |Flow|   Occurrence   |Veloc|    Full    Full
  Link                 Type          CMS  days hr:min     m/sec    Flow   Depth
  -----------------------------------------------------------------------------
  C1                   CONDUIT     0.039     0  01:59      1.25    0.01    0.10
  C10                  CONDUIT     0.616     0  00:51      1.86    0.06    0.59
  C11                  CONDUIT     0.175     0  03:06      1.73    0.01    0.26
  C12                  CONDUIT     0.160     0  02:15      1.57    0.01    0.10
  C13                  CONDUIT     0.856     0  00:39      2.91    0.05    0.48
  C14                  CONDUIT     0.271     0  00:53      2.08    0.02    0.09
  C15                  CONDUIT     0.456     0  00:35      3.30    1.45    0.81
  C16                  CONDUIT     0.431     0  00:37      1.65    0.04    0.14
  C17                  CONDUIT     0.817     0  00:37      2.96    0.04    0.14
  C18                  CONDUIT     0.813     0  00:55      4.72    0.03    0.42
  C19                  CONDUIT     0.078     0  02:18      1.21    0.03    0.52
  C2                   CONDUIT     0.042     0  02:55      1.40    0.05    0.18
  C20                  CONDUIT     5.521     0  00:50      6.59    0.17    0.36
  C21                  CONDUIT     0.202     0  01:12      1.85    1.16    0.69
  C22                  CONDUIT     0.202     0  01:13      1.62    0.09    0.60
  C23                  CONDUIT     3.965     0  00:54      2.61    0.44    0.82
  C3                   CONDUIT     0.113     0  03:04      1.80    0.04    0.14
  C4                   CONDUIT     2.425     0  00:50      4.05    0.59    0.83
  C5                   CONDUIT     0.085     0  00:54      1.67    1.45    1.00
  C6                   CONDUIT     0.071     0  00:58      1.31    1.13    0.76
  C7                   CONDUIT     0.207     0  00:58      1.38    0.05    0.56
  C8                   CONDUIT     0.126     0  00:52      1.79    1.58    0.85
  C9                   CONDUIT     0.120     0  00:53      1.30    0.41    0.48
  V1                   ORIFICE     0.271     0  00:52                      1.00
  V2                   ORIFICE     0.080     0  02:10                      1.00
  V3                   ORIFICE     0.111     0  03:05                      1.00
  V4                   ORIFICE     0.044     0  02:50                      1.00
  V5                   ORIFICE     0.039     0  00:52                      1.00
  V6                   ORIFICE     0.163     0  02:35                      1.00
  
  
  ***************************
  Flow Classification Summary
  ***************************
  
  -------------------------------------------------------------------------------------
                      Adjusted    ---------- Fraction of Time in Flow Class ---------- 
                       /Actual         Up    Down  Sub   Sup   Up    Down  Norm  Inlet 
  Conduit               Length    Dry  Dry   Dry   Crit  Crit  Crit  Crit  Ltd   Ctrl  
  -------------------------------------------------------------------------------------
  C1                      1.00   0.00  0.00  0.00  0.01  0.99  0.00  0.00  0.84  0.00
  C10                     1.00   0.00  0.00  0.00  0.91  0.09  0.00  0.00  0.94  0.00
  C11                     1.00   0.00  0.00  0.00  0.63  0.36  0.00  0.00  1.00  0.00
  C12                     1.00   0.00  0.00  0.00  0.65  0.34  0.00  0.00  0.79  0.00
  C13                     1.00   0.00  0.00  0.00  0.75  0.24  0.00  0.00  0.81  0.00
  C14                     1.00   0.02  0.00  0.00  0.02  0.97  0.00  0.00  0.25  0.00
  C15                     1.00   0.00  0.00  0.00  0.05  0.95  0.00  0.00  0.07  0.00
  C16                     1.00   0.00  0.00  0.00  0.39  0.61  0.00  0.00  0.40  0.00
  C17                     1.00   0.00  0.00  0.00  0.27  0.73  0.00  0.00  0.88  0.00
  C18                     1.00   0.00  0.00  0.00  0.73  0.27  0.00  0.00  0.92  0.00
  C19                     1.00   0.00  0.00  0.00  0.91  0.09  0.00  0.00  1.00  0.00
  C2                      1.00   0.00  0.00  0.00  0.56  0.44  0.00  0.00  0.97  0.00
  C20                     1.00   0.00  0.00  0.00  0.41  0.59  0.00  0.00  0.93  0.00
  C21                     1.00   0.00  0.00  0.00  0.02  0.98  0.00  0.00  0.00  0.00
  C22                     1.00   0.00  0.00  0.00  0.63  0.36  0.00  0.00  1.00  0.00
  C23                     1.00   0.00  0.00  0.00  0.89  0.11  0.00  0.00  0.84  0.00
  C3                      1.00   0.01  0.01  0.00  0.14  0.84  0.00  0.00  0.55  0.00
  C4                      1.00   0.00  0.00  0.00  0.87  0.13  0.00  0.00  0.91  0.00
  C5                      1.00   0.00  0.00  0.00  0.74  0.26  0.00  0.00  0.82  0.00
  C6                      1.00   0.00  0.00  0.00  0.21  0.78  0.00  0.00  0.01  0.00
  C7                      1.00   0.00  0.00  0.00  0.73  0.27  0.00  0.00  0.92  0.00
  C8                      1.00   0.00  0.00  0.00  0.33  0.67  0.00  0.00  0.00  0.00
  C9                      1.00   0.00  0.00  0.00  0.92  0.08  0.00  0.00  1.00  0.00
  
  
  *************************
  Conduit Surcharge Summary
  *************************
  
  ----------------------------------------------------------------------------
                                                           Hours        Hours 
                         --------- Hours Full --------   Above Full   Capacity
  Conduit                Both Ends  Upstream  Dnstream   Normal Flow   Limited
  ----------------------------------------------------------------------------
  C10                         0.01      0.01      2.53      0.01         0.01
  C15                         0.01      0.22      0.01      0.25         0.01
  C21                         0.01      0.53      0.01      0.52         0.01
  C22                         0.01      0.01      0.11      0.01         0.01
  C23                         0.01      0.01      2.58      0.01         0.01
  C4                          0.01      0.01      2.65      0.01         0.01
  C5                          0.26      0.30      0.46      0.31         0.25
  C6                          0.01      0.31      0.01      0.24         0.01
  C7                          0.01      0.01      1.93      0.01         0.01
  C8                          0.01      0.41      0.01      0.44         0.01
  

  Analysis begun on:  Sun Aug 21 16:49:52 2022
  Analysis ended on:  Sun Aug 21 16:49:52 2022
  Total elapsed time: < 1 sec