
  EPA STORM WATER MANAGEMENT MODEL - VERSION 5.1 (Build 5.3.0.dev0)
  --------------------------------------------------------------

  
  *********************************************************
  NOTE: The summary statistics displayed in this report are
  based on results found at every computational time step,  
  not just on results from each reporting time step.
  *********************************************************
  
  ****************
  Analysis Options
  ****************
  Flow Units ............... CMS
  Process Models:
    Rainfall/Runoff ........ YES
    RDII ................... NO
    Snowmelt ............... NO
    Groundwater ............ NO
    Flow Routing ........... YES
    Ponding Allowed ........ NO
    Water Quality .......... NO
  Infiltration Method ...... HORTON
  Flow Routing Method ...... DYNWAVE
  Surcharge Method ......... EXTRAN
  Starting Date ............ 03/13/2009 17:50:00
  Ending Date .............. 03/14/2009 01:40:00
  Antecedent Dry Days ...... 0.0
  Report Time Step ......... 00:05:00
  Wet Time Step ............ 00:05:00
  Dry Time Step ............ 01:00:00
  Routing Time Step ........ 30.00 sec
  Variable Time Step ....... YES
  Maximum Trials ........... 8
  Number of Threads ........ 1
  Head Tolerance ........... 0.001500 m
  
  
  **************************        Volume         Depth
  Runoff Quantity Continuity     hectare-m            mm
  **************************     ---------       -------
  Total Precipitation ......         1.335         7.411
  Evaporation Loss .........         0.000         0.000
  Infiltration Loss ........         0.000         0.000
  Surface Runoff ...........         1.312         7.282
  Final Storage ............         0.024         0.136
  Continuity Error (%) .....        -0.088
  
  
  **************************        Volume        Volume
  Flow Routing Continuity        hectare-m      10^6 ltr
  **************************     ---------     ---------
  Dry Weather Inflow .......         0.150         1.501
  Wet Weather Inflow .......         1.312        13.118
  Groundwater Inflow .......         0.000         0.000
  RDII Inflow ..............         0.000         0.000
  External Inflow ..........         0.000         0.000
  External Outflow .........         0.648         6.476
  Flooding Loss ............         0.266         2.664
  Evaporation Loss .........         0.000         0.000
  Exfiltration Loss ........         0.000         0.000
  Initial Stored Volume ....         0.000         0.000
  Final Stored Volume ......         0.437         4.367
  Continuity Error (%) .....         7.608
  
  
  *************************
  Highest Continuity Errors
  *************************
  Node T5 (19.77%)
  Node T3 (15.69%)
  Node T1 (7.75%)
  Node T6 (2.63%)
  Node T2 (1.21%)
  
  
  ***************************
  Time-Step Critical Elements
  ***************************
  Link C15 (47.66%)
  
  
  ********************************
  Highest Flow Instability Indexes
  ********************************
  Link C13 (6)
  Link C15 (1)
  Link C21 (1)
  Link C20 (1)
  Link C4 (1)
  
  
  *************************
  Routing Time Step Summary
  *************************
  Minimum Time Step           :     0.20 sec
  Average Time Step           :    25.34 sec
  Maximum Time Step           :    30.00 sec
  Percent in Steady State     :     0.89
  Average Iterations per Step :     2.15
  Percent Not Converging      :     0.27
  
  
  ***************************
  Subcatchment Runoff Summary
  ***************************
  
  ------------------------------------------------------------------------------------------------------------------------------
                            Total      Total      Total      Total     Imperv       Perv      Total       Total     Peak  Runoff
                           Precip      Runon       Evap      Infil     Runoff     Runoff     Runoff      Runoff   Runoff   Coeff
  Subcatchment                 mm         mm         mm         mm         mm         mm         mm    10^6 ltr      CMS
  ------------------------------------------------------------------------------------------------------------------------------
  SC01                       7.01       0.00       0.00       0.00       6.92       0.00       6.92        2.28     0.41   0.987
  SC010                      7.01       0.00       0.00       0.00       6.89       0.00       6.89        0.81     0.14   0.983
  SC02                       6.70       0.00       0.00       0.00       6.60       0.00       6.60        1.50     0.28   0.986
  SC03                       7.74       0.00       0.00       0.00       7.68       0.00       7.68        1.38     0.24   0.992
  SC04                       6.70       0.00       0.00       0.00       6.50       0.00       6.50        0.45     0.07   0.970
  SC05                       7.01       0.00       0.00       0.00       6.91       0.00       6.91        1.08     0.19   0.986
  SC06                       8.26       0.00       0.00       0.00       8.02       0.00       8.02        2.61     0.36   0.971
  SC07                       6.70       0.00       0.00       0.00       6.50       0.00       6.50        0.31     0.05   0.971
  SC08                       7.74       0.00       0.00       0.00       7.63       0.00       7.63        2.14     0.34   0.985
  SC09                       8.26       0.00       0.00       0.00       8.12       0.00       8.12        0.56     0.08   0.983
  
  
  ******************
  Node Depth Summary
  ******************
  
  ---------------------------------------------------------------------------------
                                 Average  Maximum  Maximum  Time of Max    Reported
                                   Depth    Depth      HGL   Occurrence   Max Depth
  Node                 Type       Meters   Meters   Meters  days hr:min      Meters
  ---------------------------------------------------------------------------------
  CSO10                JUNCTION     0.13     0.33    30.33     0  01:45        0.33
  CSO7                 JUNCTION     0.09     0.20    34.20     0  01:50        0.20
  CSO8                 JUNCTION     0.17     0.67    32.67     0  01:40        0.67
  CSO9                 JUNCTION     0.15     0.64    40.64     0  01:50        0.64
  J1                   JUNCTION     0.07     0.15    34.15     0  01:45        0.15
  J10                  JUNCTION     0.11     0.23    29.23     0  01:44        0.23
  J11                  JUNCTION     0.11     0.25    31.25     0  01:45        0.25
  J12                  JUNCTION     0.22     0.35    26.35     0  04:50        0.35
  J13                  JUNCTION     0.07     0.15    29.15     0  01:41        0.15
  J14                  JUNCTION     0.15     0.18    20.18     0  05:33        0.18
  J15                  JUNCTION     0.21     0.30    15.30     0  01:47        0.30
  J16                  JUNCTION     0.07     0.16    30.16     0  01:45        0.16
  J17                  JUNCTION     0.10     0.12    20.12     0  03:10        0.12
  J18                  JUNCTION     0.06     0.14    29.14     0  01:46        0.14
  J19                  JUNCTION     0.15     0.17     8.17     0  01:59        0.17
  J2                   JUNCTION     0.07     0.08    25.08     0  03:50        0.08
  J3                   JUNCTION     0.13     0.16    18.16     0  03:52        0.16
  J4                   JUNCTION     0.11     0.24    33.24     0  01:52        0.24
  J5                   JUNCTION     0.06     0.12    32.12     0  01:51        0.12
  J6                   JUNCTION     0.08     0.10    25.10     0  03:17        0.10
  J7                   JUNCTION     0.09     0.19    39.19     0  01:50        0.19
  J8                   JUNCTION     0.12     0.22    36.22     0  01:51        0.22
  J9                   JUNCTION     0.13     0.16    29.16     0  03:32        0.16
  Out_to_WWTP          OUTFALL      0.15     0.17     6.17     0  07:28        0.17
  T1                   STORAGE      4.04     5.00    15.00     0  01:58        5.00
  T2                   STORAGE      1.08     1.93    22.93     0  03:09        1.93
  T3                   STORAGE      2.95     4.35    26.35     0  04:45        4.35
  T4                   STORAGE      1.04     2.04    29.04     0  03:15        2.04
  T5                   STORAGE      2.88     4.29    31.29     0  03:47        4.29
  T6                   STORAGE      2.73     5.00    36.00     0  02:36        5.00
  
  
  *******************
  Node Inflow Summary
  *******************
  
  -------------------------------------------------------------------------------------------------
                                  Maximum  Maximum                  Lateral       Total        Flow
                                  Lateral    Total  Time of Max      Inflow      Inflow     Balance
                                   Inflow   Inflow   Occurrence      Volume      Volume       Error
  Node                 Type           CMS      CMS  days hr:min    10^6 ltr    10^6 ltr     Percent
  -------------------------------------------------------------------------------------------------
  CSO10                JUNCTION     0.143    0.143     0  01:45       0.866       0.867      -0.026
  CSO7                 JUNCTION     0.056    0.056     0  01:50       0.427       0.428       0.025
  CSO8                 JUNCTION     0.341    0.341     0  01:45        2.14        2.14      -0.035
  CSO9                 JUNCTION     0.090    0.090     0  01:50        0.64       0.641      -0.009
  J1                   JUNCTION     0.207    0.207     0  01:45        1.31        1.31      -0.198
  J10                  JUNCTION     0.252    0.583     0  01:42        1.54        3.68      -0.135
  J11                  JUNCTION     0.000    0.341     0  01:45           0        2.14      -0.015
  J12                  JUNCTION     0.000    0.696     0  01:46           0        6.96       0.470
  J13                  JUNCTION     0.291    0.291     0  01:40        1.69        1.69      -0.504
  J14                  JUNCTION     0.000    0.177     0  04:45           0        3.89       0.239
  J15                  JUNCTION     0.000    0.785     0  01:45           0        10.6       0.805
  J16                  JUNCTION     0.425    0.425     0  01:45        2.51        2.51      -0.181
  J17                  JUNCTION     0.000    0.087     0  03:09           0        1.64       0.338
  J18                  JUNCTION     0.000    0.143     0  01:45           0       0.867      -0.139
  J19                  JUNCTION     0.000    0.271     0  01:58           0        6.49       0.193
  J2                   JUNCTION     0.000    0.036     0  03:47           0       0.801       0.542
  J3                   JUNCTION     0.000    0.262     0  03:50           0        5.58       0.743
  J4                   JUNCTION     0.000    0.056     0  01:50           0       0.427       0.229
  J5                   JUNCTION     0.074    0.129     0  01:50       0.501       0.927      -0.126
  J6                   JUNCTION     0.000    0.051     0  03:15           0       0.909       0.229
  J7                   JUNCTION     0.000    0.090     0  01:50           0       0.641       0.135
  J8                   JUNCTION     0.383    0.472     0  01:50        2.99        3.64      -0.102
  J9                   JUNCTION     0.000    0.175     0  02:36           0        3.29       0.481
  Out_to_WWTP          OUTFALL      0.000    0.271     0  02:00           0        6.48       0.000
  T1                   STORAGE      0.000    0.773     0  01:48           0        10.5       8.403
  T2                   STORAGE      0.000    0.289     0  01:41           0         1.7       1.229
  T3                   STORAGE      0.000    0.693     0  01:47           0        6.93      18.604
  T4                   STORAGE      0.000    0.129     0  01:51           0       0.929       0.605
  T5                   STORAGE      0.000    0.207     0  01:45           0        1.31      24.640
  T6                   STORAGE      0.000    0.471     0  01:51           0        3.64       2.706
  
  
  **********************
  Node Surcharge Summary
  **********************
  
  Surcharging occurs when water rises above the top of the highest conduit.
  ---------------------------------------------------------------------
                                               Max. Height   Min. Depth
                                   Hours       Above Crown    Below Rim
  Node                 Type      Surcharged         Meters       Meters
  ---------------------------------------------------------------------
  CSO8                 JUNCTION        0.25          0.213        1.334
  CSO9                 JUNCTION        0.41          0.318        1.364
  
  
  *********************
  Node Flooding Summary
  *********************
  
  Flooding refers to all water that overflows a node, whether it ponds or not.
  --------------------------------------------------------------------------
                                                             Total   Maximum
                                 Maximum   Time of Max       Flood    Ponded
                        Hours       Rate    Occurrence      Volume     Depth
  Node                 Flooded       CMS   days hr:min    10^6 ltr    Meters
  --------------------------------------------------------------------------
  T1                      5.16     0.453      0  01:58       2.486     0.000
  T6                      0.95     0.148      0  02:36       0.177     0.000
  
  
  **********************
  Storage Volume Summary
  **********************
  
  --------------------------------------------------------------------------------------------------
                         Average     Avg  Evap Exfil       Maximum     Max    Time of Max    Maximum
                          Volume    Pcnt  Pcnt  Pcnt        Volume    Pcnt     Occurrence    Outflow
  Storage Unit           1000 m3    Full  Loss  Loss       1000 m3    Full    days hr:min        CMS
  --------------------------------------------------------------------------------------------------
  T1                       0.566      81     0     0         0.700     100       0  01:58      0.271
  T2                       0.217      22     0     0         0.387      39       0  03:09      0.087
  T3                       1.536      59     0     0         2.263      87       0  04:45      0.177
  T4                       0.104      21     0     0         0.204      41       0  03:15      0.051
  T5                       0.288      58     0     0         0.429      86       0  03:47      0.036
  T6                       0.328      55     0     0         0.600     100       0  02:36      0.175
  
  
  ***********************
  Outfall Loading Summary
  ***********************
  
  -----------------------------------------------------------
                         Flow       Avg       Max       Total
                         Freq      Flow      Flow      Volume
  Outfall Node           Pcnt       CMS       CMS    10^6 ltr
  -----------------------------------------------------------
  Out_to_WWTP           99.01     0.232     0.271       6.476
  -----------------------------------------------------------
  System                99.01     0.232     0.271       6.476
  
  
  ********************
  Link Flow Summary
  ********************
  
  -----------------------------------------------------------------------------
                                 Maximum  Time of Max   Maximum    Max/    Max/
                                  |Flow|   Occurrence   |Veloc|    Full    Full
  Link                 Type          CMS  days hr:min     m/sec    Flow   Depth
  -----------------------------------------------------------------------------
  C1                   CONDUIT     0.036     0  03:50      0.91    0.01    0.12
  C10                  CONDUIT     0.471     0  01:51      1.59    0.05    0.57
  C11                  CONDUIT     0.262     0  03:52      1.84    0.01    0.11
  C12                  CONDUIT     0.175     0  03:22      1.25    0.01    0.13
  C13                  CONDUIT     0.693     0  01:47      1.79    0.04    0.59
  C14                  CONDUIT     0.271     0  02:00      2.08    0.02    0.09
  C15                  CONDUIT     0.341     0  01:45      2.66    1.08    0.78
  C16                  CONDUIT     0.340     0  01:45      1.58    0.03    0.12
  C17                  CONDUIT     0.582     0  01:44      2.53    0.03    0.13
  C18                  CONDUIT     0.289     0  01:41      4.72    0.01    0.50
  C19                  CONDUIT     0.087     0  03:10      0.97    0.03    0.20
  C2                   CONDUIT     0.051     0  03:17      1.16    0.06    0.21
  C20                  CONDUIT     0.425     0  01:45      3.71    0.01    0.11
  C21                  CONDUIT     0.143     0  01:45      1.74    0.82    0.53
  C22                  CONDUIT     0.142     0  01:46      1.30    0.06    0.27
  C23                  CONDUIT     0.773     0  01:48      1.65    0.09    0.60
  C3                   CONDUIT     0.177     0  04:46      2.05    0.07    0.17
  C4                   CONDUIT     0.207     0  01:45      4.05    0.05    0.58
  C5                   CONDUIT     0.056     0  01:50      1.21    0.96    0.86
  C6                   CONDUIT     0.056     0  01:52      1.25    0.88    0.60
  C7                   CONDUIT     0.129     0  01:51      1.38    0.03    0.56
  C8                   CONDUIT     0.090     0  01:50      1.32    1.13    0.80
  C9                   CONDUIT     0.089     0  01:50      1.16    0.31    0.41
  V1                   ORIFICE     0.271     0  01:58                      1.00
  V2                   ORIFICE     0.087     0  03:09                      1.00
  V3                   ORIFICE     0.177     0  04:45                      1.00
  V4                   ORIFICE     0.051     0  03:15                      1.00
  V5                   ORIFICE     0.036     0  03:47                      1.00
  V6                   ORIFICE     0.175     0  02:36                      1.00
  
  
  ***************************
  Flow Classification Summary
  ***************************
  
  -------------------------------------------------------------------------------------
                      Adjusted    ---------- Fraction of Time in Flow Class ---------- 
                       /Actual         Up    Down  Sub   Sup   Up    Down  Norm  Inlet 
  Conduit               Length    Dry  Dry   Dry   Crit  Crit  Crit  Crit  Ltd   Ctrl  
  -------------------------------------------------------------------------------------
  C1                      1.00   0.00  0.00  0.00  0.93  0.07  0.00  0.00  0.95  0.00
  C10                     1.00   0.00  0.00  0.00  0.95  0.05  0.00  0.00  0.97  0.00
  C11                     1.00   0.00  0.00  0.00  0.31  0.69  0.00  0.00  1.00  0.00
  C12                     1.00   0.00  0.00  0.00  0.75  0.24  0.00  0.00  0.89  0.00
  C13                     1.00   0.00  0.00  0.00  0.91  0.09  0.00  0.00  0.50  0.00
  C14                     1.00   0.01  0.00  0.00  0.01  0.98  0.00  0.00  0.09  0.00
  C15                     1.00   0.00  0.00  0.00  0.00  1.00  0.00  0.00  0.00  0.00
  C16                     1.00   0.00  0.00  0.00  0.34  0.66  0.00  0.00  0.24  0.00
  C17                     1.00   0.00  0.00  0.00  0.46  0.54  0.00  0.00  0.97  0.00
  C18                     1.00   0.00  0.00  0.00  0.93  0.07  0.00  0.00  0.97  0.00
  C19                     1.00   0.00  0.00  0.00  1.00  0.00  0.00  0.00  1.00  0.00
  C2                      1.00   0.00  0.00  0.00  0.26  0.74  0.00  0.00  0.96  0.00
  C20                     1.00   0.00  0.00  0.00  0.58  0.42  0.00  0.00  0.98  0.00
  C21                     1.00   0.00  0.00  0.00  0.00  1.00  0.00  0.00  0.00  0.00
  C22                     1.00   0.00  0.00  0.00  0.81  0.19  0.00  0.00  1.00  0.00
  C23                     1.00   0.00  0.00  0.00  0.94  0.06  0.00  0.00  0.95  0.00
  C3                      1.00   0.00  0.00  0.00  0.04  0.95  0.00  0.00  0.06  0.00
  C4                      1.00   0.00  0.00  0.00  0.96  0.04  0.00  0.00  0.98  0.00
  C5                      1.00   0.00  0.00  0.00  0.87  0.13  0.00  0.00  0.98  0.00
  C6                      1.00   0.00  0.00  0.00  0.01  0.99  0.00  0.00  0.00  0.00
  C7                      1.00   0.00  0.00  0.00  0.93  0.07  0.00  0.00  0.96  0.00
  C8                      1.00   0.00  0.00  0.00  0.45  0.55  0.00  0.00  0.00  0.00
  C9                      1.00   0.00  0.00  0.00  1.00  0.00  0.00  0.00  1.00  0.00
  
  
  *************************
  Conduit Surcharge Summary
  *************************
  
  ----------------------------------------------------------------------------
                                                           Hours        Hours 
                         --------- Hours Full --------   Above Full   Capacity
  Conduit                Both Ends  Upstream  Dnstream   Normal Flow   Limited
  ----------------------------------------------------------------------------
  C10                         0.01      0.01      5.07      0.01         0.01
  C13                         0.01      0.01      5.85      0.01         0.01
  C15                         0.01      0.25      0.01      0.37         0.01
  C23                         0.01      0.01      6.50      0.01         0.01
  C4                          0.01      0.01      6.53      0.01         0.01
  C7                          0.01      0.01      3.72      0.01         0.01
  C8                          0.01      0.41      0.01      0.42         0.01
  

  Analysis begun on:  Fri Jan 14 16:04:13 2022
  Analysis ended on:  Fri Jan 14 16:04:31 2022
  Total elapsed time: 00:00:18