
  EPA STORM WATER MANAGEMENT MODEL - VERSION 5.1 (Build 5.3.0.dev0)
  --------------------------------------------------------------

  WARNING 04: minimum elevation drop used for Conduit WS02004404WS02004405
  WARNING 03: negative offset ignored for Link YS02001904YS02001907
  
  *********************************************************
  NOTE: The summary statistics displayed in this report are
  based on results found at every computational time step,  
  not just on results from each reporting time step.
  *********************************************************
  
  ****************
  Analysis Options
  ****************
  Flow Units ............... LPS
  Process Models:
    Rainfall/Runoff ........ YES
    RDII ................... NO
    Snowmelt ............... NO
    Groundwater ............ NO
    Flow Routing ........... YES
    Ponding Allowed ........ NO
    Water Quality .......... NO
  Infiltration Method ...... HORTON
  Flow Routing Method ...... DYNWAVE
  Surcharge Method ......... EXTRAN
  Starting Date ............ 01/01/2000 00:00:00
  Ending Date .............. 01/01/2000 06:00:00
  Antecedent Dry Days ...... 8.0
  Report Time Step ......... 00:01:00
  Wet Time Step ............ 00:01:00
  Dry Time Step ............ 00:01:00
  Routing Time Step ........ 30.00 sec
  Variable Time Step ....... YES
  Maximum Trials ........... 8
  Number of Threads ........ 4
  Head Tolerance ........... 0.001500 m
  
  
  **************************        Volume         Depth
  Runoff Quantity Continuity     hectare-m            mm
  **************************     ---------       -------
  Total Precipitation ......         2.090        34.507
  Evaporation Loss .........         0.000         0.000
  Infiltration Loss ........         0.215         3.544
  Surface Runoff ...........         1.812        29.909
  Final Storage ............         0.064         1.061
  Continuity Error (%) .....        -0.021
  
  
  **************************        Volume        Volume
  Flow Routing Continuity        hectare-m      10^6 ltr
  **************************     ---------     ---------
  Dry Weather Inflow .......         0.472         4.722
  Wet Weather Inflow .......         1.812        18.117
  Groundwater Inflow .......         0.000         0.000
  RDII Inflow ..............         0.000         0.000
  External Inflow ..........         0.078         0.784
  External Outflow .........         2.058        20.581
  Flooding Loss ............         0.501         5.009
  Evaporation Loss .........         0.000         0.000
  Exfiltration Loss ........         0.000         0.000
  Initial Stored Volume ....         0.303         3.031
  Final Stored Volume ......         0.170         1.703
  Continuity Error (%) .....        -2.398
  
  
  *************************
  Highest Continuity Errors
  *************************
  Node JK-storage (-18.06%)
  Node YS02001583 (-7.70%)
  Node YS02001884 (5.13%)
  Node HS02004842 (2.19%)
  Node HS02004817 (1.75%)
  
  
  ***************************
  Time-Step Critical Elements
  ***************************
  Link WS02006252WS02006251 (51.65%)
  Link WS02006238WS02006235 (13.72%)
  Link WS02006280WS02006229 (11.95%)
  Link WS02004404WS02004405 (5.82%)
  Link WS02003066WSF200 (2.64%)
  
  
  ********************************
  Highest Flow Instability Indexes
  ********************************
  Link WS02006113WS02006111 (38)
  Link WS02006111WS02006112 (21)
  Link WS02006238WS02006235 (15)
  Link WS02006252WS02006251 (14)
  Link WS02006256WS02006235 (13)
  
  
  *************************
  Routing Time Step Summary
  *************************
  Minimum Time Step           :     0.50 sec
  Average Time Step           :     1.50 sec
  Maximum Time Step           :    14.54 sec
  Percent in Steady State     :    -0.00
  Average Iterations per Step :     2.99
  Percent Not Converging      :     9.49
  
  
  ***************************
  Subcatchment Runoff Summary
  ***************************
  
  ------------------------------------------------------------------------------------------------------------------------------
                            Total      Total      Total      Total     Imperv       Perv      Total       Total     Peak  Runoff
                           Precip      Runon       Evap      Infil     Runoff     Runoff     Runoff      Runoff   Runoff   Coeff
  Subcatchment                 mm         mm         mm         mm         mm         mm         mm    10^6 ltr      LPS
  ------------------------------------------------------------------------------------------------------------------------------
  sub0                      34.51       0.00       0.00       0.92      30.82       1.50      32.32        0.03    17.49   0.937
  sub1                      34.51       0.00       0.00       1.54      29.41       2.25      31.66        0.21   110.48   0.918
  sub10                     34.51       0.00       0.00       1.09      30.41       1.67      32.08        0.35   190.19   0.930
  sub11                     34.51       0.00       0.00       1.08      30.45       1.68      32.13        0.37   216.86   0.931
  sub12                     34.51       0.00       0.00       1.75      28.82       2.73      31.56        0.28   176.22   0.915
  sub14                     34.51       0.00       0.00       1.23      30.10       1.88      31.98        0.30   170.22   0.927
  sub15                     34.51       0.00       0.00       4.75      23.15       5.60      28.75        0.49   247.25   0.833
  sub16                     34.51       0.00       0.00       4.93      22.19       6.46      28.65        0.30   165.63   0.830
  sub17                     34.51       0.00       0.00       4.81      22.52       6.24      28.76        0.25   134.47   0.833
  sub2                      34.51       0.00       0.00       6.69      20.78       6.08      26.87        0.25   110.44   0.779
  sub22                     34.51       0.00       0.00       7.17      18.87       7.67      26.53        1.68   794.36   0.769
  sub23                     34.51       0.00       0.00       5.87      20.85       6.90      27.75        1.32   662.17   0.804
  sub3                      34.51       0.00       0.00       7.17      20.71       5.60      26.31        0.59   239.35   0.763
  sub4                      34.51       0.00       0.00       1.71      29.13       2.09      31.21        0.65   270.78   0.904
  sub5                      34.51       0.00       0.00       0.95      30.73       1.46      32.19        0.36   191.36   0.933
  sub60                     34.51       0.00       0.00       1.65      29.13       2.50      31.63        0.42   243.46   0.916
  sub61                     34.51       0.00       0.00       2.38      27.48       3.49      30.97        0.57   332.77   0.897
  sub62                     34.51       0.00       0.00       1.10      30.40       1.67      32.07        0.88   462.55   0.929
  sub63                     34.51       0.00       0.00       4.37      23.50       5.63      29.14        0.66   353.21   0.844
  sub64                     34.51       0.00       0.00       2.21      28.06       2.96      31.02        0.75   377.40   0.899
  sub65                     34.51       0.00       0.00       1.92      28.69       2.57      31.26        0.86   425.53   0.906
  sub66                     34.51       0.00       0.00       5.31      23.32       4.70      28.02        1.31   541.48   0.812
  sub67                     34.51       0.00       0.00       1.06      30.48       1.70      32.18        0.60   379.01   0.932
  sub68                     34.51       0.00       0.00       1.97      28.45       2.86      31.31        0.86   473.34   0.907
  sub69                     34.51       0.00       0.00       1.70      29.14       3.48      32.62        1.21   576.38   0.945
  sub7                      34.51       0.00       0.00       1.21      30.13       1.89      32.02        0.11    64.60   0.928
  sub70                     34.51       0.00       0.00       5.55      22.49       6.19      28.68        0.83   310.63   0.831
  sub71                     34.51       0.00       0.00       1.12      30.33       1.64      31.97        0.84   416.22   0.927
  sub72                     34.51       0.00       0.00       1.00      30.56       1.42      31.98        0.44   201.99   0.927
  sub8                      34.51       0.00       0.00       1.22      30.11       1.88      31.99        0.20   116.61   0.927
  sub9                      34.51       0.00       0.00       1.23      30.10       1.88      31.99        0.15    86.81   0.927
  
  
  ******************
  Node Depth Summary
  ******************
  
  ---------------------------------------------------------------------------------
                                 Average  Maximum  Maximum  Time of Max    Reported
                                   Depth    Depth      HGL   Occurrence   Max Depth
  Node                 Type       Meters   Meters   Meters  days hr:min      Meters
  ---------------------------------------------------------------------------------
  HS02004478           JUNCTION     0.15     1.54    10.77     0  01:58        1.37
  HS02004479           JUNCTION     0.22     1.68    10.89     0  01:58        1.57
  HS02004480           JUNCTION     0.19     1.65    10.89     0  01:58        1.54
  HS02004770           JUNCTION     0.20     1.42    11.25     0  01:54        1.42
  HS02004777           JUNCTION     0.23     1.48    11.28     0  01:54        1.44
  HS02004785           JUNCTION     0.13     1.49    11.39     0  01:54        1.31
  HS02004788           JUNCTION     0.10     1.42    11.32     0  01:54        1.29
  HS02004792           JUNCTION     0.14     1.60    11.12     0  01:52        1.60
  HS02004799           JUNCTION     0.25     1.76    10.97     0  01:58        1.71
  HS02004802           JUNCTION     0.24     1.72    10.85     0  01:58        1.48
  HS02004807           JUNCTION     0.21     1.88    11.05     0  01:58        1.45
  HS02004817           JUNCTION     0.50     2.37    11.22     0  01:58        1.88
  HS02004824           JUNCTION     0.10     1.94    11.34     0  01:58        1.47
  HS02004830           JUNCTION     0.10     1.95    11.41     0  01:58        1.51
  HS02004837           JUNCTION     0.08     1.88    11.46     0  01:58        1.50
  HS02004842           JUNCTION     0.36     2.20    11.47     0  01:58        1.85
  HS02004848           JUNCTION     0.06     1.86    11.47     0  01:58        1.52
  HS02004852           JUNCTION     0.06     1.89    11.40     0  01:58        1.51
  HS02004856           JUNCTION     0.12     2.07    11.50     0  01:57        1.48
  HS02004862           JUNCTION     0.08     2.00    11.38     0  01:57        1.37
  HS02004870           JUNCTION     0.07     1.78    11.06     0  01:58        1.31
  HS02004876           JUNCTION     0.11     1.84    10.87     0  01:58        1.36
  HS02004881           JUNCTION     0.06     1.62    10.65     0  01:58        1.14
  HS02004901           JUNCTION     0.21     1.42    11.24     0  01:54        1.42
  WS02001211           JUNCTION     0.62     0.80     5.63     0  02:02        0.79
  WS02001212           JUNCTION     0.36     0.57     5.63     0  01:58        0.56
  WS02001213           JUNCTION     0.58     0.86     5.63     0  01:59        0.86
  WS02003059           JUNCTION     0.65     0.93     5.62     0  01:59        0.92
  WS02003060           JUNCTION     0.38     0.67     5.60     0  02:00        0.67
  WS02003066           JUNCTION     0.24     0.44     6.00     0  02:00        0.44
  WS02003067           JUNCTION     0.56     0.88     6.20     0  01:59        0.88
  WS02003069           JUNCTION     0.43     0.76     5.34     0  02:00        0.76
  WS02003072           JUNCTION     0.49     0.80     5.17     0  02:01        0.80
  WS02003073           JUNCTION     0.29     0.50     4.57     0  02:01        0.50
  WS02004138           JUNCTION     0.13     0.14     7.39     0  00:33        0.14
  WS02004139           JUNCTION     0.56     0.73     5.64     0  01:59        0.73
  WS02004401           JUNCTION     0.76     1.74     7.74     0  01:57        1.71
  WS02004402           JUNCTION     0.78     1.69     7.65     0  01:57        1.66
  WS02004403           JUNCTION     0.78     1.62     7.55     0  01:57        1.60
  WS02004404           JUNCTION     0.85     1.64     7.49     0  01:57        1.61
  WS02004405           JUNCTION     0.84     1.59     7.44     0  01:57        1.57
  WS02004406           JUNCTION     0.83     1.55     7.38     0  01:47        1.46
  WS02004407           JUNCTION     0.26     0.82     7.13     0  01:56        0.82
  WS02004409           JUNCTION     0.54     1.31     7.08     0  01:56        1.31
  WS02004410           JUNCTION     0.55     1.23     6.95     0  01:56        1.23
  WS02004411           JUNCTION     0.55     1.16     6.84     0  02:00        1.16
  WS02004412           JUNCTION     0.56     1.07     6.71     0  01:59        1.07
  WS02004413           JUNCTION     0.70     1.13     6.60     0  01:59        1.12
  WS02006109           JUNCTION     0.95     2.64     9.26     0  01:54        2.64
  WS02006110           JUNCTION     0.89     2.34     8.93     0  01:56        2.34
  WS02006111           JUNCTION     0.37     1.60     8.31     0  01:57        1.58
  WS02006112           JUNCTION     0.97     2.20     8.09     0  01:57        2.18
  WS02006113           JUNCTION     0.47     1.73     8.62     0  01:57        1.71
  WS02006115           JUNCTION     0.68     1.81     7.95     0  01:57        1.79
  WS02006116           JUNCTION     0.75     1.81     7.85     0  01:57        1.79
  WS02006228           JUNCTION     0.99     3.03     9.68     0  01:58        2.97
  WS02006229           JUNCTION     0.99     3.23     9.93     0  01:58        3.14
  WS02006230           JUNCTION     0.95     2.65     9.39     0  01:52        2.65
  WS02006231           JUNCTION     0.69     2.19     9.31     0  01:54        2.19
  WS02006232           JUNCTION     0.80     2.18     9.22     0  01:52        2.18
  WS02006234           JUNCTION     0.70     1.96     9.12     0  01:45        1.96
  WS02006235           JUNCTION     0.72     1.97     9.14     0  02:10        1.93
  WS02006238           JUNCTION     0.75     1.99     9.13     0  02:10        1.93
  WS02006239           JUNCTION     0.70     2.03     9.24     0  01:45        1.78
  WS02006240           JUNCTION     0.65     2.00     9.29     0  01:45        1.62
  WS02006242           JUNCTION     0.71     1.55     8.82     0  01:45        1.55
  WS02006243           JUNCTION     0.60     1.44     8.86     0  01:45        1.36
  WS02006245           JUNCTION     0.58     1.31     8.79     0  01:45        1.26
  WS02006247           JUNCTION     0.60     1.26     8.76     0  01:45        1.22
  WS02006248           JUNCTION     0.54     1.10     8.69     0  01:45        1.10
  WS02006249           JUNCTION     0.57     1.09     8.69     0  01:45        1.09
  WS02006251           JUNCTION     0.60     2.21     9.88     0  02:20        2.04
  WS02006252           JUNCTION     0.41     1.50     9.74     0  00:00        1.50
  WS02006253           JUNCTION     0.65     2.86    10.51     0  01:58        2.47
  WS02006256           JUNCTION     0.98     2.35     9.28     0  02:00        2.35
  WS02006280           JUNCTION     0.21     1.75    10.03     0  01:58        1.63
  WS02006284           JUNCTION     0.47     1.93    10.33     0  01:58        1.79
  WS02006287           JUNCTION     0.21     1.70    10.66     0  01:58        1.55
  WSF200               JUNCTION     0.23     0.51     5.74     0  02:00        0.50
  YS02001580           JUNCTION     0.04     1.05     9.59     0  01:54        0.77
  YS02001583           JUNCTION     0.07     1.11     9.60     0  01:54        0.81
  YS02001586           JUNCTION     0.13     1.13     9.30     0  01:54        1.13
  YS02001590           JUNCTION     0.21     1.40     9.26     0  01:52        1.36
  YS02001593           JUNCTION     0.15     1.35     9.21     0  01:54        1.28
  YS02001596           JUNCTION     0.20     1.69     9.11     0  01:54        1.64
  YS02001600           JUNCTION     0.26     1.87     9.00     0  01:52        1.86
  YS02001601           JUNCTION     0.44     2.06     8.90     0  01:52        2.06
  YS02001602           JUNCTION     0.37     1.87     8.77     0  01:54        1.87
  YS02001605           JUNCTION     0.34     1.78     8.68     0  01:54        1.77
  YS02001607           JUNCTION     0.33     1.65     8.49     0  01:59        1.64
  YS02001610           JUNCTION     0.37     1.68     8.48     0  01:54        1.68
  YS02001613           JUNCTION     0.34     1.66     8.50     0  01:58        1.64
  YS02001616           JUNCTION     0.27     1.60     8.51     0  01:58        1.57
  YS02001619           JUNCTION     0.25     1.59     8.52     0  01:58        1.55
  YS02001622           JUNCTION     0.24     1.61     8.51     0  01:54        1.54
  YS02001625           JUNCTION     0.47     1.78     8.38     0  01:54        1.78
  YS02001629           JUNCTION     0.34     1.85     8.40     0  01:54        1.80
  YS02001633           JUNCTION     0.41     1.86     8.32     0  01:59        1.84
  YS02001641           JUNCTION     0.39     1.66     8.09     0  02:00        1.63
  YS02001644           JUNCTION     0.39     1.59     8.03     0  02:00        1.56
  YS02001647           JUNCTION     0.18     1.26     7.87     0  02:00        1.25
  YS02001649           JUNCTION     0.21     1.34     7.73     0  02:01        1.33
  YS02001652           JUNCTION     0.11     1.22     7.82     0  02:02        1.13
  YS02001655           JUNCTION     0.07     0.92     7.77     0  02:01        0.91
  YS02001658           JUNCTION     0.05     0.59     7.73     0  02:00        0.54
  YS02001661           JUNCTION     0.11     0.33     7.73     0  01:58        0.33
  YS02001664           JUNCTION     0.04     0.22     8.15     0  01:55        0.22
  YS02001745           JUNCTION     0.04     0.21     7.72     0  01:55        0.21
  YS02001748           JUNCTION     0.05     0.48     7.56     0  02:01        0.48
  YS02001751           JUNCTION     0.05     0.70     7.58     0  02:01        0.65
  YS02001754           JUNCTION     0.07     0.99     7.60     0  02:01        0.99
  YS02001757           JUNCTION     0.21     1.31     7.57     0  02:01        1.30
  YS02001759           JUNCTION     0.15     1.21     7.58     0  02:01        1.21
  YS02001762           JUNCTION     0.15     1.19     7.59     0  02:00        1.17
  YS02001765           JUNCTION     0.13     1.14     7.59     0  02:00        1.12
  YS02001767           JUNCTION     0.13     1.12     7.61     0  02:00        1.08
  YS02001770           JUNCTION     0.15     1.13     7.62     0  01:59        1.11
  YS02001774           JUNCTION     0.21     1.20     7.63     0  01:59        1.20
  YS02001779           JUNCTION     0.05     0.94     7.63     0  01:59        0.94
  YS02001783           JUNCTION     0.20     1.95     8.09     0  01:58        1.59
  YS02001784           JUNCTION     0.22     1.98     8.05     0  01:58        1.53
  YS02001786           JUNCTION     0.19     2.09     8.12     0  01:58        1.37
  YS02001788           JUNCTION     0.15     2.28     8.26     0  01:58        1.22
  YS02001790           JUNCTION     0.18     1.96     7.60     0  01:58        1.36
  YS02001791           JUNCTION     0.14     1.98     7.45     0  02:16        1.30
  YS02001793           JUNCTION     0.15     2.05     6.88     0  02:16        1.80
  YS02001882           JUNCTION     0.23     1.81     8.52     0  01:57        1.56
  YS02001884           JUNCTION     0.32     1.87     8.49     0  01:57        1.66
  YS02001887           JUNCTION     0.39     1.88     8.41     0  01:57        1.75
  YS02001890           JUNCTION     0.42     1.81     8.32     0  01:57        1.81
  YS02001895           JUNCTION     0.21     1.60     8.35     0  01:57        1.52
  YS02001898           JUNCTION     0.21     1.62     8.36     0  01:57        1.53
  YS02001901           JUNCTION     0.31     1.74     8.35     0  01:57        1.65
  YS02001904           JUNCTION     0.30     1.68     8.31     0  01:57        1.62
  YS02001907           JUNCTION     0.60     1.96     8.25     0  01:57        1.96
  YS02001910           JUNCTION     0.40     1.81     8.32     0  01:59        1.79
  YS02001915           JUNCTION     0.23     1.65     8.36     0  01:59        1.62
  YS02001918           JUNCTION     0.11     1.36     8.43     0  01:59        1.32
  YS02001920           JUNCTION     0.19     1.45     8.45     0  01:59        1.41
  YS02001923           JUNCTION     0.08     1.23     8.49     0  01:59        1.18
  YS02001926           JUNCTION     0.12     1.44     8.88     0  01:59        0.97
  YS02001929           JUNCTION     0.06     0.83     8.52     0  01:59        0.73
  YS02006553           JUNCTION     0.60     2.05     8.34     0  01:58        1.99
  YS02006556           JUNCTION     0.57     2.14     8.45     0  01:58        1.98
  YS02006558           JUNCTION     0.62     2.22     8.48     0  01:58        2.04
  YS02006561           JUNCTION     0.11     1.45     8.11     0  01:58        1.18
  YS02163301           JUNCTION     0.36     1.88     8.40     0  01:54        1.80
  YS02163601           JUNCTION     0.45     1.81     8.20     0  02:00        1.78
  YS02164001           JUNCTION     0.38     1.69     8.14     0  02:00        1.66
  YSB1154              JUNCTION     0.35     1.87    10.93     0  01:58        1.76
  YSB1171              JUNCTION     0.49     1.95    10.85     0  01:58        1.90
  YSB1174              JUNCTION     0.30     1.78    10.89     0  01:58        1.69
  YSB6556              JUNCTION     0.25     1.73    10.90     0  01:58        1.64
  CC-1                 OUTFALL      0.00     0.00     0.00     0  00:00        0.00
  CC-2                 OUTFALL      0.00     0.00     0.00     0  00:00        0.00
  JK-1                 OUTFALL      0.00     0.00     0.00     0  00:00        0.00
  JK-2                 OUTFALL      0.00     0.00     0.00     0  00:00        0.00
  WSC                  OUTFALL      0.29     0.50     1.17     0  02:02        0.50
  CC-storage           STORAGE      0.32     0.94     6.44     0  02:30        0.94
  JK-storage           STORAGE      0.55     5.80     6.60     0  01:58        5.80
  XR-storage           STORAGE      7.71     8.66     6.66     0  06:00        8.66
  
  
  *******************
  Node Inflow Summary
  *******************
  
  -------------------------------------------------------------------------------------------------
                                  Maximum  Maximum                  Lateral       Total        Flow
                                  Lateral    Total  Time of Max      Inflow      Inflow     Balance
                                   Inflow   Inflow   Occurrence      Volume      Volume       Error
  Node                 Type           LPS      LPS  days hr:min    10^6 ltr    10^6 ltr     Percent
  -------------------------------------------------------------------------------------------------
  HS02004478           JUNCTION      0.00  2129.79     0  02:00           0        5.72      -0.015
  HS02004479           JUNCTION      0.00   385.26     0  01:54           0       0.648       0.131
  HS02004480           JUNCTION      0.00  2111.12     0  01:55           0        4.58       0.068
  HS02004770           JUNCTION    662.17   770.51     0  01:54        1.32        1.54       0.209
  HS02004777           JUNCTION      0.03   759.64     0  01:54    0.000648        1.45       0.362
  HS02004785           JUNCTION      0.15   758.35     0  01:53     0.00324        1.44       0.050
  HS02004788           JUNCTION    248.92   963.57     0  01:54       0.531        1.97      -0.004
  HS02004792           JUNCTION    794.64  1581.79     0  01:55        1.68        3.65       0.015
  HS02004799           JUNCTION    170.22  1749.96     0  01:55       0.304        3.94       0.071
  HS02004802           JUNCTION      0.00   339.90     0  02:19           0        1.19       0.347
  HS02004807           JUNCTION    216.86   466.96     0  01:54       0.373        1.25       0.357
  HS02004817           JUNCTION      0.60   467.43     0  01:54       0.013       0.945       1.782
  HS02004824           JUNCTION    270.83   685.35     0  01:54       0.652        1.13       0.082
  HS02004830           JUNCTION      0.15   694.93     0  01:54     0.00324       0.667       0.227
  HS02004837           JUNCTION    196.54   872.77     0  01:55       0.491       0.885       0.088
  HS02004842           JUNCTION      0.00   839.04     0  01:55           0       0.614       2.238
  HS02004848           JUNCTION    239.35  1045.89     0  01:55       0.592        1.07       0.047
  HS02004852           JUNCTION      0.00   982.69     0  01:55           0       0.951       0.036
  HS02004856           JUNCTION     86.81  1033.63     0  01:57       0.154         1.1       0.158
  HS02004862           JUNCTION    110.64  1123.27     0  01:57       0.255        1.36       0.040
  HS02004870           JUNCTION    116.61  1238.05     0  01:56       0.204        1.56       0.015
  HS02004876           JUNCTION    110.48  1310.15     0  01:56       0.211        1.77       0.061
  HS02004881           JUNCTION     64.60  1295.87     0  01:56       0.108        1.88       0.040
  HS02004901           JUNCTION    165.63   389.87     0  02:00         0.3       0.362       0.513
  WS02001211           JUNCTION      7.35   213.24     0  01:57       0.159        4.02       0.829
  WS02001212           JUNCTION      0.00   210.20     0  02:56           0        3.99       0.390
  WS02001213           JUNCTION      0.00   239.66     0  01:57           0        3.97       0.457
  WS02003059           JUNCTION      0.00   236.04     0  01:51           0        3.97       0.816
  WS02003060           JUNCTION     16.53  1464.30     0  01:59       0.357        12.4       0.124
  WS02003066           JUNCTION      0.00  1237.23     0  01:58           0        8.06       0.022
  WS02003067           JUNCTION      0.00  1234.75     0  01:57           0        8.07       0.058
  WS02003069           JUNCTION      0.32  1451.66     0  02:00     0.00691        12.3       0.132
  WS02003072           JUNCTION      0.00  1447.54     0  02:00           0        12.3       0.176
  WS02003073           JUNCTION      1.82  1449.40     0  02:01      0.0393        12.3       0.184
  WS02004138           JUNCTION      0.00   190.00     0  00:29           0        3.88       0.072
  WS02004139           JUNCTION      0.32   190.32     0  00:33     0.00693        3.89       0.688
  WS02004401           JUNCTION      0.00  1235.54     0  01:55           0        8.18       0.138
  WS02004402           JUNCTION      0.00  1236.47     0  01:55           0        8.17       0.138
  WS02004403           JUNCTION      0.00  1236.96     0  01:55           0        8.16       0.133
  WS02004404           JUNCTION      0.16  1237.91     0  01:58      0.0035        8.15       0.114
  WS02004405           JUNCTION      0.04  1240.24     0  01:58    0.000823        8.15       0.159
  WS02004406           JUNCTION      0.00  1241.10     0  01:58           0        8.13       0.270
  WS02004407           JUNCTION      0.00  1241.68     0  01:58           0        8.11       0.023
  WS02004409           JUNCTION      0.00  1234.93     0  01:57           0        8.11       0.049
  WS02004410           JUNCTION      0.00  1235.13     0  01:57           0         8.1       0.070
  WS02004411           JUNCTION      0.00  1235.02     0  01:57           0         8.1       0.085
  WS02004412           JUNCTION      0.00  1235.07     0  01:57           0        8.09       0.107
  WS02004413           JUNCTION      0.00  1234.90     0  01:57           0        8.08       0.186
  WS02006109           JUNCTION      1.23  1203.49     0  02:00      0.0266        8.01       0.121
  WS02006110           JUNCTION      0.00  1120.84     0  02:04           0        7.98       0.098
  WS02006111           JUNCTION      0.00  1120.94     0  02:05           0        7.97       0.005
  WS02006112           JUNCTION    134.47  1236.51     0  01:55       0.247        8.21       0.255
  WS02006113           JUNCTION      0.00  1121.01     0  02:05           0        7.97       0.037
  WS02006115           JUNCTION      0.00  1235.92     0  01:55           0        8.19       0.095
  WS02006116           JUNCTION      0.00  1235.13     0  01:55           0        8.18       0.011
  WS02006228           JUNCTION      0.00  1202.65     0  02:00           0        7.99       0.059
  WS02006229           JUNCTION      0.00  2132.93     0  02:00           0        9.25       0.106
  WS02006230           JUNCTION     10.28   939.65     0  01:59       0.222        4.83       0.190
  WS02006231           JUNCTION      0.00   456.95     0  03:30           0        4.21      -0.039
  WS02006232           JUNCTION      0.00   456.87     0  03:30           0        4.21       0.204
  WS02006234           JUNCTION      0.00   455.03     0  03:30           0         4.2      -0.057
  WS02006235           JUNCTION      0.00   451.25     0  03:30           0        4.14       0.123
  WS02006238           JUNCTION      0.00   418.51     0  03:26           0        3.89      -0.300
  WS02006239           JUNCTION      0.00   418.48     0  03:26           0        3.88      -0.237
  WS02006240           JUNCTION      0.00   447.24     0  01:45           0        3.88      -0.001
  WS02006242           JUNCTION      0.00   451.54     0  01:45           0        3.88       0.077
  WS02006243           JUNCTION      0.00   462.40     0  01:44           0        3.66      -0.277
  WS02006245           JUNCTION      0.00   481.50     0  01:45           0        3.67       0.358
  WS02006247           JUNCTION      0.00   481.52     0  01:45           0        3.67       0.036
  WS02006248           JUNCTION      0.00   491.66     0  01:44           0        3.83      -0.036
  WS02006249           JUNCTION      0.00  1316.60     0  01:58           0        5.43       0.175
  WS02006251           JUNCTION      0.08  1315.86     0  01:58     0.00166        5.49       0.025
  WS02006252           JUNCTION      0.00   400.00     0  00:00           0        3.58      -0.085
  WS02006253           JUNCTION     17.49  1253.04     0  01:58      0.0262        1.96       0.067
  WS02006256           JUNCTION      0.00   300.00     0  02:00           0       0.448      -0.254
  WS02006280           JUNCTION      0.00  2131.81     0  02:00           0         5.7       0.024
  WS02006284           JUNCTION      0.10  2131.68     0  02:00     0.00207         5.7      -0.013
  WS02006287           JUNCTION      0.00  2131.48     0  02:00           0         5.7       0.018
  WSF200               JUNCTION      0.00  1237.66     0  01:58           0        8.06       0.011
  YS02001580           JUNCTION      0.00   131.83     0  01:54           0     0.00422      -2.930
  YS02001583           JUNCTION      0.00   209.26     0  01:54           0      0.0148      -7.145
  YS02001586           JUNCTION    310.63   310.63     0  02:00       0.829        0.84       0.203
  YS02001590           JUNCTION      0.00   310.90     0  02:00           0       0.826      -0.032
  YS02001593           JUNCTION      0.00   310.56     0  02:00           0       0.826       0.032
  YS02001596           JUNCTION      0.00   310.89     0  02:00           0       0.826       0.003
  YS02001600           JUNCTION      0.00   310.99     0  02:00           0       0.826      -0.006
  YS02001601           JUNCTION    576.38   886.59     0  02:00        1.21        2.03       0.059
  YS02001602           JUNCTION      0.00   563.95     0  01:54           0        1.69       0.039
  YS02001605           JUNCTION      0.00   564.03     0  01:54           0        1.67       0.045
  YS02001607           JUNCTION      0.00   563.78     0  01:54           0        1.67       0.149
  YS02001610           JUNCTION      0.00   541.13     0  01:54           0        1.66       0.175
  YS02001613           JUNCTION      0.00   543.19     0  01:54           0        1.65       0.129
  YS02001616           JUNCTION      0.00   545.62     0  01:54           0        1.65       0.040
  YS02001619           JUNCTION    541.48   951.85     0  01:54        1.31        2.95       0.020
  YS02001622           JUNCTION      0.00   938.42     0  01:54           0        2.95       0.016
  YS02001625           JUNCTION      0.00   925.78     0  01:54           0        2.95       0.349
  YS02001629           JUNCTION      0.00   926.49     0  01:54           0        2.94       0.002
  YS02001633           JUNCTION    425.73  1316.23     0  01:57       0.865         3.8       0.108
  YS02001641           JUNCTION      0.00  1319.82     0  01:57           0         3.8       0.087
  YS02001644           JUNCTION    377.44  1687.40     0  01:57       0.746        4.54       0.084
  YS02001647           JUNCTION      0.00  1688.55     0  01:57           0        4.53       0.011
  YS02001649           JUNCTION      0.00  2054.44     0  01:56           0        5.19       0.009
  YS02001652           JUNCTION      0.00   447.19     0  02:03           0       0.664      -0.238
  YS02001655           JUNCTION      0.15   517.97     0  02:01     0.00332       0.664       0.098
  YS02001658           JUNCTION      0.00   356.49     0  01:59           0       0.661       0.004
  YS02001661           JUNCTION      0.00   352.82     0  01:55           0       0.661       0.050
  YS02001664           JUNCTION    353.21   353.21     0  01:55       0.661       0.661      -0.002
  YS02001745           JUNCTION    243.47   243.47     0  01:55       0.416       0.416       0.079
  YS02001748           JUNCTION      0.04   243.56     0  01:55    0.000972       0.416      -0.050
  YS02001751           JUNCTION      0.01   308.06     0  02:03    0.000238       0.417       0.237
  YS02001754           JUNCTION      0.26   371.63     0  02:03     0.00562       0.422      -0.362
  YS02001757           JUNCTION      0.00  2889.18     0  02:06           0        7.08      -0.002
  YS02001759           JUNCTION    332.81   800.37     0  02:00       0.569        1.46      -0.003
  YS02001762           JUNCTION      0.00   492.16     0  02:00           0       0.892       0.009
  YS02001765           JUNCTION      0.00   494.89     0  02:00           0       0.892       0.006
  YS02001767           JUNCTION      0.54   495.99     0  02:00      0.0116       0.893       0.025
  YS02001770           JUNCTION    462.70   497.75     0  02:00       0.882       0.923      -0.000
  YS02001774           JUNCTION      0.00   112.84     0  01:55           0      0.0615       1.725
  YS02001779           JUNCTION      0.01    78.77     0  01:56    0.000108      0.0193      -0.360
  YS02001783           JUNCTION      0.00  1137.13     0  02:01           0        2.68       0.002
  YS02001784           JUNCTION      1.06  1138.53     0  02:01      0.0229        2.71       0.023
  YS02001786           JUNCTION      0.06  1138.16     0  02:01     0.00122        2.71       0.020
  YS02001788           JUNCTION      0.07  1138.16     0  02:03     0.00153        2.71      -0.015
  YS02001790           JUNCTION      0.15  1197.95     0  02:01     0.00335        2.71      -0.033
  YS02001791           JUNCTION      0.00  1351.25     0  02:01           0        2.71      -0.031
  YS02001793           JUNCTION      0.00  1406.99     0  02:01           0        2.71      -0.026
  YS02001882           JUNCTION      0.00    52.98     0  01:55           0      0.0132       4.884
  YS02001884           JUNCTION      0.00   100.76     0  01:54           0      0.0497       5.410
  YS02001887           JUNCTION    379.46   390.41     0  01:55       0.608       0.642       0.711
  YS02001890           JUNCTION      0.00   393.52     0  01:55           0         0.6       0.885
  YS02001895           JUNCTION      0.00   394.54     0  01:55           0       0.595       0.266
  YS02001898           JUNCTION      0.00   383.78     0  01:56           0       0.593       0.083
  YS02001901           JUNCTION      0.00   395.54     0  01:56           0       0.596       0.536
  YS02001904           JUNCTION      0.00   397.83     0  01:56           0       0.601       0.499
  YS02001907           JUNCTION      0.00  1092.94     0  02:00           0        1.93       0.940
  YS02001910           JUNCTION      0.00   772.23     0  02:00           0        1.34       0.545
  YS02001915           JUNCTION    416.24   771.12     0  02:00       0.836        1.36       0.140
  YS02001918           JUNCTION      0.00   359.39     0  02:00           0       0.541       0.057
  YS02001920           JUNCTION      2.87   358.10     0  02:00       0.062       0.525       0.174
  YS02001923           JUNCTION      0.04   320.95     0  02:00    0.000814       0.455      -0.060
  YS02001926           JUNCTION      0.05   345.90     0  01:58     0.00113       0.446       0.044
  YS02001929           JUNCTION    201.99   201.99     0  02:00        0.44        0.44      -0.001
  YS02006553           JUNCTION      0.00   785.31     0  02:06           0        1.85       0.650
  YS02006556           JUNCTION      0.00   785.72     0  02:06           0        1.86       0.432
  YS02006558           JUNCTION    474.22  1147.34     0  01:58       0.881        2.72       0.134
  YS02006561           JUNCTION      0.00  1150.31     0  01:58           0        2.68      -0.004
  YS02163301           JUNCTION      0.00   905.70     0  01:56           0        2.94       0.071
  YS02163601           JUNCTION      0.11  1316.47     0  01:57     0.00238         3.8       0.144
  YS02164001           JUNCTION      0.00  1317.41     0  01:57           0         3.8       0.075
  YSB1154              JUNCTION    191.36   191.36     0  02:00       0.365       0.366       0.409
  YSB1171              JUNCTION      0.00   375.52     0  01:54           0       0.648       1.012
  YSB1174              JUNCTION    176.22   176.22     0  01:55       0.276       0.276       0.481
  YSB6556              JUNCTION      0.00   192.53     0  01:58           0       0.366       0.363
  CC-1                 OUTFALL       0.00   683.00     0  00:00           0        4.15       0.000
  CC-2                 OUTFALL       0.00   683.00     0  00:00           0        1.68       0.000
  JK-1                 OUTFALL       0.00  1000.00     0  00:00           0        1.77       0.000
  JK-2                 OUTFALL       0.00  1000.00     0  02:00           0       0.666       0.000
  WSC                  OUTFALL       0.00  1449.13     0  02:02           0        12.3       0.000
  CC-storage           STORAGE       0.00  2830.57     0  02:02           0        9.31      -1.141
  JK-storage           STORAGE       0.00  1696.48     0  02:01           0        2.87     -15.301
  XR-storage           STORAGE     200.00   200.00     0  00:00        4.32        4.92       0.001
  
  
  **********************
  Node Surcharge Summary
  **********************
  
  Surcharging occurs when water rises above the top of the highest conduit.
  ---------------------------------------------------------------------
                                               Max. Height   Min. Depth
                                   Hours       Above Crown    Below Rim
  Node                 Type      Surcharged         Meters       Meters
  ---------------------------------------------------------------------
  HS02004478           JUNCTION        0.22          0.617        0.323
  HS02004479           JUNCTION        0.34          0.882        0.168
  HS02004480           JUNCTION        0.38          0.944        0.156
  HS02004770           JUNCTION        0.30          0.720        0.000
  HS02004777           JUNCTION        0.30          0.780        0.000
  HS02004785           JUNCTION        0.25          0.790        0.000
  HS02004788           JUNCTION        0.24          0.720        0.000
  HS02004792           JUNCTION        0.35          0.900        0.000
  HS02004799           JUNCTION        0.44          1.060        0.000
  HS02004802           JUNCTION        0.38          1.006        0.204
  HS02004807           JUNCTION        0.36          1.179        0.041
  HS02004817           JUNCTION        0.81          1.668        0.072
  HS02004824           JUNCTION        0.25          1.240        0.070
  HS02004830           JUNCTION        0.22          1.246        0.084
  HS02004837           JUNCTION        0.18          1.183        0.157
  HS02004842           JUNCTION        0.30          1.503        0.017
  HS02004848           JUNCTION        0.13          1.164        0.206
  HS02004852           JUNCTION        0.15          1.190        0.230
  HS02004856           JUNCTION        0.15          1.300        0.000
  HS02004862           JUNCTION        0.18          1.300        0.000
  HS02004870           JUNCTION        0.20          1.078        0.322
  HS02004876           JUNCTION        0.24          1.143        0.417
  HS02004881           JUNCTION        0.22          0.916        0.534
  HS02004901           JUNCTION        0.31          0.720        0.000
  WS02004401           JUNCTION        1.09          0.739        0.921
  WS02004402           JUNCTION        1.16          0.689        1.051
  WS02004403           JUNCTION        1.17          0.621        1.409
  WS02004404           JUNCTION        1.36          0.635        2.145
  WS02004405           JUNCTION        1.28          0.592        2.208
  WS02004406           JUNCTION        1.26          0.549        1.901
  WS02004409           JUNCTION        0.59          0.314        2.046
  WS02004410           JUNCTION        0.56          0.234        2.306
  WS02004411           JUNCTION        0.53          0.159        2.371
  WS02004412           JUNCTION        0.46          0.071        2.239
  WS02004413           JUNCTION        0.90          0.125        2.075
  WS02006109           JUNCTION        2.23          1.820        0.000
  WS02006110           JUNCTION        1.79          1.432        0.418
  WS02006111           JUNCTION        0.81          0.790        1.080
  WS02006112           JUNCTION        2.09          1.204        0.476
  WS02006113           JUNCTION        0.84          0.932        0.998
  WS02006115           JUNCTION        1.05          0.801        1.449
  WS02006116           JUNCTION        1.06          0.755        1.535
  WS02006228           JUNCTION        2.19          2.200        0.000
  WS02006229           JUNCTION        0.56          1.054        0.016
  WS02006230           JUNCTION        1.40          1.570        0.000
  WS02006231           JUNCTION        1.87          1.479        0.051
  WS02006232           JUNCTION        2.28          1.480        0.000
  WS02006234           JUNCTION        1.99          1.240        0.000
  WS02006235           JUNCTION        2.06          1.262        0.028
  WS02006238           JUNCTION        2.14          1.266        0.164
  WS02006239           JUNCTION        2.00          1.290        0.000
  WS02006240           JUNCTION        1.98          1.289        0.101
  WS02006242           JUNCTION        2.24          0.820        0.000
  WS02006243           JUNCTION        1.93          0.732        0.038
  WS02006245           JUNCTION        1.89          0.597        0.253
  WS02006247           JUNCTION        1.94          0.547        0.213
  WS02006248           JUNCTION        1.76          0.380        0.000
  WS02006249           JUNCTION        1.86          0.390        0.000
  WS02006251           JUNCTION        1.51          1.180        0.000
  WS02006252           JUNCTION        2.34          1.100        0.000
  WS02006253           JUNCTION        1.51          1.823        0.657
  WS02006256           JUNCTION        5.73          2.050        0.000
  WS02006280           JUNCTION        0.45          0.704        0.076
  WS02006284           JUNCTION        0.39          0.651        0.149
  WS02006287           JUNCTION        0.32          0.703        0.187
  YS02001580           JUNCTION        0.24          0.450        0.000
  YS02001583           JUNCTION        0.25          0.469        0.031
  YS02001586           JUNCTION        0.40          0.510        0.000
  YS02001590           JUNCTION        0.46          0.750        0.000
  YS02001593           JUNCTION        0.46          0.725        0.115
  YS02001596           JUNCTION        0.55          0.961        0.109
  YS02001600           JUNCTION        0.67          1.190        0.000
  YS02001601           JUNCTION        0.99          1.440        0.000
  YS02001602           JUNCTION        0.88          1.270        0.000
  YS02001605           JUNCTION        0.83          1.180        0.000
  YS02001607           JUNCTION        0.40          0.646        0.034
  YS02001610           JUNCTION        0.42          0.680        0.000
  YS02001613           JUNCTION        0.39          0.655        0.045
  YS02001616           JUNCTION        0.35          0.598        0.012
  YS02001619           JUNCTION        0.33          0.588        0.022
  YS02001622           JUNCTION        0.32          0.608        0.012
  YS02001625           JUNCTION        0.50          0.780        0.000
  YS02001629           JUNCTION        0.23          0.470        0.000
  YS02001633           JUNCTION        0.51          0.842        0.218
  YS02001641           JUNCTION        0.41          0.657        0.443
  YS02001644           JUNCTION        0.36          0.593        0.327
  YS02001647           JUNCTION        0.13          0.260        0.640
  YS02001649           JUNCTION        0.17          0.340        0.710
  YS02001652           JUNCTION        0.05          0.192        0.938
  YS02001757           JUNCTION        0.14          0.308        0.902
  YS02001759           JUNCTION        0.10          0.214        0.996
  YS02001762           JUNCTION        0.09          0.187        0.963
  YS02001765           JUNCTION        0.07          0.141        0.959
  YS02001767           JUNCTION        0.05          0.117        0.913
  YS02001770           JUNCTION        0.06          0.097        0.823
  YS02001774           JUNCTION        0.10          0.204        0.846
  YS02001783           JUNCTION        0.35          1.154        0.446
  YS02001784           JUNCTION        0.33          1.182        0.308
  YS02001786           JUNCTION        0.21          1.286        0.144
  YS02001788           JUNCTION        0.08          1.480        0.000
  YS02001790           JUNCTION        0.28          1.157        0.000
  YS02001791           JUNCTION        0.28          1.183        0.737
  YS02001793           JUNCTION        0.33          1.051        1.549
  YS02001882           JUNCTION        0.26          0.809        0.021
  YS02001884           JUNCTION        0.27          0.811        0.059
  YS02001887           JUNCTION        0.30          0.827        0.123
  YS02001890           JUNCTION        0.31          0.760        0.000
  YS02001895           JUNCTION        0.25          0.603        0.147
  YS02001898           JUNCTION        0.24          0.594        0.146
  YS02001901           JUNCTION        0.28          0.737        0.133
  YS02001904           JUNCTION        0.28          0.680        0.170
  YS02001907           JUNCTION        0.48          0.950        0.000
  YS02001910           JUNCTION        0.34          0.811        0.289
  YS02001915           JUNCTION        0.25          0.646        0.354
  YS02001918           JUNCTION        0.16          0.362        0.448
  YS02001920           JUNCTION        0.17          0.446        0.694
  YS02001923           JUNCTION        0.01          0.021        0.799
  YS02001926           JUNCTION        0.01          0.439        0.461
  YS02006553           JUNCTION        0.50          1.055        0.135
  YS02006556           JUNCTION        0.41          1.098        0.252
  YS02006558           JUNCTION        0.40          1.116        0.284
  YS02006561           JUNCTION        0.12          0.648        0.502
  YS02163301           JUNCTION        0.49          0.883        0.147
  YS02163601           JUNCTION        0.53          0.806        0.274
  YS02164001           JUNCTION        0.43          0.687        0.413
  YSB1154              JUNCTION        0.53          1.172        0.228
  YSB1171              JUNCTION        0.53          1.100        0.000
  YSB1174              JUNCTION        0.47          1.078        0.172
  YSB6556              JUNCTION        0.42          1.034        0.066
  
  
  *********************
  Node Flooding Summary
  *********************
  
  Flooding refers to all water that overflows a node, whether it ponds or not.
  --------------------------------------------------------------------------
                                                             Total   Maximum
                                 Maximum   Time of Max       Flood    Ponded
                        Hours       Rate    Occurrence      Volume     Depth
  Node                 Flooded       LPS   days hr:min    10^6 ltr    Meters
  --------------------------------------------------------------------------
  HS02004770              0.10    204.32      0  01:54       0.028     0.000
  HS02004777              0.01     74.00      0  01:54       0.001     0.000
  HS02004785              0.01    118.87      0  01:54       0.000     0.000
  HS02004788              0.01    336.94      0  01:54       0.002     0.000
  HS02004792              0.05    150.12      0  01:52       0.017     0.000
  HS02004799              0.01     29.58      0  01:58       0.000     0.000
  HS02004856              0.01    226.13      0  01:57       0.000     0.000
  HS02004862              0.01     80.86      0  01:57       0.000     0.000
  HS02004901              0.18    389.82      0  02:00       0.145     0.000
  WS02006109              0.17    100.59      0  02:00       0.027     0.000
  WS02006228              0.01      0.79      0  01:58       0.000     0.000
  WS02006230              0.40    487.04      0  01:59       0.411     0.000
  WS02006232              0.09      0.62      0  02:15       0.000     0.000
  WS02006234              0.43    128.29      0  02:04       0.122     0.000
  WS02006239              0.01     57.31      0  01:45       0.000     0.000
  WS02006242              0.52    137.59      0  02:01       0.212     0.000
  WS02006248              0.70    350.86      0  01:53       0.722     0.000
  WS02006249              1.29   1252.67      0  01:58       2.159     0.000
  WS02006251              0.01    114.31      0  02:20       0.000     0.000
  WS02006252              0.19    247.74      0  01:40       0.052     0.000
  WS02006256              0.32    293.19      0  02:00       0.156     0.000
  YS02001580              0.01     76.54      0  01:54       0.000     0.000
  YS02001586              0.01    104.98      0  01:54       0.002     0.000
  YS02001590              0.01    101.15      0  01:52       0.000     0.000
  YS02001600              0.01      3.82      0  01:53       0.000     0.000
  YS02001601              0.33    488.61      0  02:00       0.342     0.000
  YS02001602              0.15     61.93      0  02:01       0.023     0.000
  YS02001605              0.01      3.38      0  01:54       0.000     0.000
  YS02001610              0.09     70.73      0  02:01       0.012     0.000
  YS02001625              0.05     77.74      0  01:54       0.003     0.000
  YS02001629              0.01    235.42      0  01:54       0.001     0.000
  YS02001788              0.01    159.20      0  01:58       0.000     0.000
  YS02001790              0.01     50.47      0  01:58       0.000     0.000
  YS02001890              0.01     67.75      0  01:57       0.001     0.000
  YS02001907              0.08    587.39      0  02:00       0.071     0.000
  YSB1171                 0.01     61.52      0  01:58       0.000     0.000
  JK-storage              0.25   1060.24      0  01:58       0.499     0.000
  
  
  **********************
  Storage Volume Summary
  **********************
  
  --------------------------------------------------------------------------------------------------
                         Average     Avg  Evap Exfil       Maximum     Max    Time of Max    Maximum
                          Volume    Pcnt  Pcnt  Pcnt        Volume    Pcnt     Occurrence    Outflow
  Storage Unit           1000 m3    Full  Loss  Loss       1000 m3    Full    days hr:min        LPS
  --------------------------------------------------------------------------------------------------
  CC-storage               0.902      14     0     0         2.613      41       0  02:30    1783.41
  JK-storage               0.028      10     0     0         0.291     100       0  01:58    2300.00
  XR-storage               0.925      64     0     0         1.039      72       0  06:00     190.00
  
  
  ***********************
  Outfall Loading Summary
  ***********************
  
  -----------------------------------------------------------
                         Flow       Avg       Max       Total
                         Freq      Flow      Flow      Volume
  Outfall Node           Pcnt       LPS       LPS    10^6 ltr
  -----------------------------------------------------------
  CC-1                  41.17    468.38    683.00       4.153
  CC-2                  17.50    361.19    683.00       1.683
  JK-1                  69.40    123.14   1000.00       1.772
  JK-2                  15.74    213.70   1000.00       0.666
  WSC                   99.97    604.56   1449.13      12.308
  -----------------------------------------------------------
  System                48.75   1770.97   3565.62      20.581
  
  
  ********************
  Link Flow Summary
  ********************
  
  -----------------------------------------------------------------------------
                                 Maximum  Time of Max   Maximum    Max/    Max/
                                  |Flow|   Occurrence   |Veloc|    Full    Full
  Link                 Type          LPS  days hr:min     m/sec    Flow   Depth
  -----------------------------------------------------------------------------
  1                    CONDUIT   1449.13     0  02:02      3.66    0.50    0.50
  HS02004478WS02006287 CONDUIT   2131.48     0  02:00      2.60    0.60    1.00
  HS02004479HS02004480 CONDUIT    394.65     0  01:54      0.56    0.38    1.00
  HS02004480HS02004478 CONDUIT   2115.47     0  01:54      3.02    8.91    1.00
  HS02004770HS02004777 CONDUIT    759.61     0  01:54      1.09    1.39    1.00
  HS02004777HS02004785 CONDUIT    758.20     0  01:53      1.14    0.93    1.00
  HS02004785HS02004788 CONDUIT    739.93     0  01:54      1.35    5.58    1.00
  HS02004788HS02004792 CONDUIT    826.09     0  01:54      1.46    0.55    1.00
  HS02004792HS02004799 CONDUIT   1579.78     0  01:55      2.26    0.97    1.00
  HS02004799HS02004480 CONDUIT   1747.55     0  01:55      2.50    2.21    1.00
  HS02004802HS02004478 CONDUIT    353.46     0  02:19      0.70    0.31    1.00
  HS02004807HS02004802 CONDUIT    339.90     0  02:19      0.62    0.65    1.00
  HS02004817HS02004807 CONDUIT    466.83     0  01:54      0.67    0.28    1.00
  HS02004817HS02004824 CONDUIT    466.39     0  01:54      0.67    0.21    1.00
  HS02004824HS02004830 CONDUIT    694.78     0  01:54      1.03    0.91    1.00
  HS02004830HS02004837 CONDUIT    676.25     0  01:55      1.04    0.67    1.00
  HS02004837HS02004842 CONDUIT    839.04     0  01:55      1.20    0.50    1.00
  HS02004842HS02004848 CONDUIT    838.70     0  01:55      1.34    0.49    1.00
  HS02004848HS02004852 CONDUIT    982.69     0  01:55      1.60    1.11    1.00
  HS02004852HS02004856 CONDUIT    949.33     0  01:57      1.45    1.09    1.00
  HS02004856HS02004862 CONDUIT   1018.28     0  01:57      1.68    1.02    1.00
  HS02004862HS02004870 CONDUIT   1124.70     0  01:56      1.92    1.21    1.00
  HS02004870HS02004876 CONDUIT   1200.60     0  01:56      1.94    0.80    1.00
  HS02004876HS02004881 CONDUIT   1234.47     0  01:56      2.55   13.13    1.00
  HS02004881HS02006253 CONDUIT   1238.38     0  01:58      2.10    0.24    1.00
  HS02004901HS02004770 CONDUIT    237.65     0  02:00      0.34    0.89    1.00
  WS02001211WS02001212 CONDUIT    210.20     0  02:56      0.54    0.16    0.68
  WS02001212WS02001213 CONDUIT    239.66     0  01:57      1.04    0.37    0.55
  WS02001213WS02003059 CONDUIT    223.14     0  01:59      0.47    0.37    0.88
  WS02003059WS02003060 CONDUIT    227.78     0  02:54      0.66    0.15    0.80
  WS02003060WS02003069 CONDUIT   1451.34     0  02:00      2.07    0.57    0.59
  WS02003066WSF200     CONDUIT   1237.66     0  01:58      3.39    0.21    0.37
  WS02003067WS02003066 CONDUIT   1237.23     0  01:58      1.95    0.40    0.55
  WS02003069WS02003072 CONDUIT   1447.54     0  02:00      1.87    0.70    0.65
  WS02003072WS02003073 CONDUIT   1447.58     0  02:01      2.02    3.13    0.61
  WS02004138WS02004139 CONDUIT    190.00     0  00:33      2.17    0.04    0.41
  WS02004139WS02001211 CONDUIT    205.90     0  01:57      0.55    0.26    0.59
  WS02004401WS02004402 CONDUIT   1236.47     0  01:55      1.57    1.48    1.00
  WS02004402WS02004403 CONDUIT   1236.96     0  01:55      1.57    1.78    1.00
  WS02004403WS02004404 CONDUIT   1237.75     0  01:58      1.58    0.89    1.00
  WS02004404WS02004405 CONDUIT   1240.20     0  01:58      1.58   12.15    1.00
  WS02004405WS02004406 CONDUIT   1241.10     0  01:58      1.58    2.45    1.00
  WS02004406WS02004407 CONDUIT   1241.68     0  01:58      1.83    0.55    0.91
  WS02004407WS02004409 CONDUIT   1234.93     0  01:57      2.00    0.44    0.91
  WS02004409WS02004410 CONDUIT   1235.13     0  01:57      1.57    1.60    1.00
  WS02004410WS02004411 CONDUIT   1235.02     0  01:57      1.57    1.69    1.00
  WS02004411WS02004412 CONDUIT   1235.07     0  01:57      1.57    1.75    1.00
  WS02004412WS02004413 CONDUIT   1234.90     0  01:57      1.57    0.83    1.00
  WS02004413WS02003067 CONDUIT   1234.75     0  01:57      1.93    0.53    0.76
  WS02006109WS02006110 CONDUIT   1120.84     0  02:04      2.23    2.16    1.00
  WS02006110WS02006113 CONDUIT   1121.01     0  02:05      2.23    1.02    1.00
  WS02006111WS02006112 CONDUIT   1121.13     0  02:05      2.23    0.53    1.00
  WS02006112WS02006115 CONDUIT   1235.92     0  01:55      1.57    0.73    1.00
  WS02006113WS02006111 CONDUIT   1120.94     0  02:05      2.76    1.34    1.00
  WS02006115WS02006116 CONDUIT   1235.13     0  01:55      1.57    1.59    1.00
  WS02006116WS02004401 CONDUIT   1235.54     0  01:55      1.57    1.70    1.00
  WS02006228WS02006109 CONDUIT   1202.26     0  02:00      2.39    5.25    1.00
  WS02006229WS02006228 CONDUIT   1202.65     0  02:00      2.39    3.98    1.00
  WS02006230WS02006229 CONDUIT    929.37     0  01:59      2.41   20.68    1.00
  WS02006231WS02006230 CONDUIT    457.71     0  03:30      1.36    6.94    1.00
  WS02006232WS02006231 CONDUIT    456.95     0  03:30      1.19    0.96    1.00
  WS02006234WS02006232 CONDUIT    456.87     0  03:30      1.55    0.92    1.00
  WS02006235WS02006234 CONDUIT    455.03     0  03:30      1.30    4.80    1.00
  WS02006238WS02006235 CONDUIT    420.75     0  03:50      1.60    0.94    1.00
  WS02006239WS02006238 CONDUIT    418.51     0  03:26      1.25    1.34    1.00
  WS02006240WS02006239 CONDUIT    418.48     0  03:26      1.31    1.32    1.00
  WS02006242WS02006240 CONDUIT    447.24     0  01:45      1.20    1.78    1.00
  WS02006243WS02006242 CONDUIT    451.54     0  01:45      1.39    0.96    1.00
  WS02006245WS02006243 CONDUIT    462.40     0  01:44      1.42    1.37    1.00
  WS02006247WS02006245 CONDUIT    481.50     0  01:45      1.47    3.82    1.00
  WS02006248WS02006247 CONDUIT    481.52     0  01:45      1.46    1.05    1.00
  WS02006249WS02006248 CONDUIT    491.66     0  01:44      1.43    2.69    1.00
  WS02006251WS02006249 CONDUIT   1316.60     0  01:58      3.42    3.80    1.00
  WS02006252WS02006251 CONDUIT    407.51     0  02:20      4.49    1.50    1.00
  WS02006253WS02006251 CONDUIT   1256.39     0  01:58      3.26    3.77    1.00
  WS02006256WS02006235 CONDUIT    256.72     0  04:50      3.63    2.72    1.00
  WS02006280WS02006229 CONDUIT   2132.93     0  02:00      4.05    0.46    1.00
  WS02006284WS02006280 CONDUIT   2131.81     0  02:00      3.02    0.89    1.00
  WS02006287WS02006284 CONDUIT   2131.58     0  02:00      2.78    0.99    1.00
  WSF200WS02003060     CONDUIT   1240.43     0  01:57      2.58    0.28    0.49
  YS02001580YS02001583 CONDUIT    131.83     0  01:54      0.82    0.51    1.00
  YS02001583YS02001586 CONDUIT    170.86     0  01:54      0.80    0.26    1.00
  YS02001586YS02001590 CONDUIT    310.90     0  02:00      1.29    0.54    1.00
  YS02001590YS02001593 CONDUIT    310.56     0  02:00      1.10    1.95    1.00
  YS02001593YS02001596 CONDUIT    310.89     0  02:00      1.70    0.49    1.00
  YS02001596YS02001600 CONDUIT    310.99     0  02:00      1.19    0.60    1.00
  YS02001600YS02001601 CONDUIT    310.86     0  02:00      1.10    0.54    1.00
  YS02001601YS02001602 CONDUIT    563.95     0  01:54      1.99    2.04    1.00
  YS02001602YS02001605 CONDUIT    564.03     0  01:54      1.99   11.94    1.00
  YS02001605YS02001607 CONDUIT    563.78     0  01:54      1.99    3.09    1.00
  YS02001607YS02001610 CONDUIT    541.13     0  01:54      0.70    0.51    1.00
  YS02001610YS02001613 CONDUIT    543.19     0  01:54      0.69    0.63    1.00
  YS02001613YS02001616 CONDUIT    545.62     0  01:54      0.70    0.47    1.00
  YS02001616YS02001619 CONDUIT    523.25     0  01:54      0.68    0.91    1.00
  YS02001619YS02001622 CONDUIT    938.42     0  01:54      1.27    1.38    1.00
  YS02001622YS02001625 CONDUIT    925.78     0  01:54      1.18    0.49    1.00
  YS02001625YS02001629 CONDUIT    926.49     0  01:54      1.19    0.44    1.00
  YS02001629YS02163301 CONDUIT    905.70     0  01:56      1.15    1.12    1.00
  YS02001633YS02163601 CONDUIT   1316.36     0  01:57      1.68    1.38    1.00
  YS02001641YS02001644 CONDUIT   1320.67     0  01:57      1.68    4.27    1.00
  YS02001644YS02001647 CONDUIT   1688.55     0  01:57      2.22    0.99    1.00
  YS02001647YS02001649 CONDUIT   1705.83     0  01:57      2.34    0.90    1.00
  YS02001649YS02001757 CONDUIT   2000.12     0  01:56      2.57    1.21    1.00
  YS02001652YS02001649 CONDUIT    458.92     0  02:06      0.83    0.23    1.00
  YS02001655YS02001652 CONDUIT    447.19     0  02:03      1.48    0.22    0.96
  YS02001658YS02001655 CONDUIT    517.81     0  02:01      1.99    0.22    0.71
  YS02001661YS02001658 CONDUIT    356.49     0  01:59      2.21    0.14    0.42
  YS02001664YS02001661 CONDUIT    352.82     0  01:55      2.03    0.11    0.27
  YS02001745YS02001748 CONDUIT    243.52     0  01:55      2.08    0.09    0.30
  YS02001748YS02001751 CONDUIT    308.05     0  02:03      1.75    0.16    0.58
  YS02001751YS02001754 CONDUIT    371.37     0  02:03      1.56    0.18    0.79
  YS02001754YS02001757 CONDUIT    341.94     0  02:01      0.51    0.14    1.00
  YS02001757CaochengTiaoxuchi CONDUIT   2830.57     0  02:02      6.88    1.23    0.75
  YS02001759YS02001757 CONDUIT    799.50     0  02:00      1.02    0.57    1.00
  YS02001762YS02001759 CONDUIT    491.28     0  02:00      0.71    0.57    1.00
  YS02001765YS02001762 CONDUIT    492.16     0  02:00      0.69    0.46    1.00
  YS02001767YS02001765 CONDUIT    494.89     0  02:00      0.77    0.62    1.00
  YS02001770YS02001767 CONDUIT    495.45     0  02:00      0.82    1.96    1.00
  YS02001774YS02001770 CONDUIT    112.84     0  01:55      0.18    0.07    1.00
  YS02001779YS02001774 CONDUIT     81.06     0  02:08      0.15    0.04    0.97
  YS02001783YS02001784 CONDUIT   1137.47     0  02:01      2.26    1.57    1.00
  YS02001784YS02001785 CONDUIT   1138.10     0  02:01      2.26    2.65    1.00
  YS02001786YS02001788 CONDUIT   1138.09     0  02:03      2.44    2.19    1.00
  YS02001788YS02001790 CONDUIT   1197.80     0  02:01      2.69    0.88    1.00
  YS02001790YS02001791 CONDUIT   1351.25     0  02:01      3.43    1.47    1.00
  YS02001791YS02001793 CONDUIT   1406.99     0  02:01      6.75    0.60    1.00
  YS02001793JiankangQianchi CONDUIT   1696.48     0  02:01     24.00    0.13    1.00
  YS02001882YS02001884 CONDUIT     52.98     0  01:55      0.10    0.06    1.00
  YS02001884YS02001887 CONDUIT    100.76     0  01:54      0.13    0.13    1.00
  YS02001887YS02001890 CONDUIT    393.52     0  01:55      0.50    0.67    1.00
  YS02001890YS02001895 CONDUIT    394.54     0  01:55      0.50    0.18    1.00
  YS02001895YS02001898 CONDUIT    383.78     0  01:56      0.49    0.67    1.00
  YS02001898YS02001901 CONDUIT    395.54     0  01:56      0.50    0.26    1.00
  YS02001901YS02001904 CONDUIT    397.83     0  01:56      0.51    0.62    1.00
  YS02001904YS02001907 CONDUIT    400.83     0  01:56      0.51    0.14    1.00
  YS02001907YS02006553 CONDUIT    785.31     0  02:06      0.87    0.92    1.00
  YS02001910YS02001907 CONDUIT    771.16     0  02:00      0.98    0.43    1.00
  YS02001915YS02001910 CONDUIT    772.23     0  02:00      0.98    0.38    1.00
  YS02001918YS02001915 CONDUIT    360.28     0  02:00      0.46    0.20    1.00
  YS02001920YS02001918 CONDUIT    359.39     0  02:00      0.65    0.35    1.00
  YS02001923YS02001920 CONDUIT    355.23     0  02:00      0.76    0.16    1.00
  YS02001926YS02001923 CONDUIT    320.92     0  02:00      0.95    0.46    1.00
  YS02001929YS02001926 CONDUIT    277.13     0  02:00      1.07    0.13    0.92
  YS02006553YS02006556 CONDUIT    785.72     0  02:06      1.00    0.67    1.00
  YS02006556YS02006558 CONDUIT    786.45     0  02:06      1.00    0.62    1.00
  YS02006558YS02006561 CONDUIT   1150.31     0  01:58      4.07    2.54    1.00
  YS02006561YS02001783 CONDUIT   1137.13     0  02:01      2.28    0.59    1.00
  YS02163301YS02001633 CONDUIT    906.32     0  01:57      1.15    0.85    1.00
  YS02163601YS02164001 CONDUIT   1317.41     0  01:57      1.68    1.17    1.00
  YS02164001YS02001641 CONDUIT   1319.82     0  01:57      1.68    1.80    1.00
  YSB1154YSB6556       CONDUIT    192.53     0  01:58      0.50    0.35    1.00
  YSB1171HS02004479    CONDUIT    385.26     0  01:54      0.77    0.26    1.00
  YSB1174YSB1171       CONDUIT    176.68     0  01:54      0.46    0.27    1.00
  YSB6556YSB1171       CONDUIT    198.84     0  01:54      0.52    0.20    1.00
  CC-R1                PUMP       683.00     0  00:00              1.00
  CC-R2                PUMP       683.00     0  00:00              1.00
  CC-S1                PUMP       200.00     0  00:00              1.00
  CC-S2                PUMP       200.00     0  00:00              1.00
  JK-R1                PUMP      1000.00     0  00:00              1.00
  JK-R2                PUMP      1000.00     0  02:00              1.00
  JK-S                 PUMP       300.00     0  02:00              1.00
  XR-1                 PUMP        95.00     0  00:10              1.00
  XR-2                 PUMP        95.00     0  00:29              1.00
  XR-3                 PUMP         0.00     0  00:00              0.00
  XR-4                 PUMP         0.00     0  00:00              0.00
  
  
  ***************************
  Flow Classification Summary
  ***************************
  
  -------------------------------------------------------------------------------------
                      Adjusted    ---------- Fraction of Time in Flow Class ---------- 
                       /Actual         Up    Down  Sub   Sup   Up    Down  Norm  Inlet 
  Conduit               Length    Dry  Dry   Dry   Crit  Crit  Crit  Crit  Ltd   Ctrl  
  -------------------------------------------------------------------------------------
  1                       1.00   0.00  0.00  0.00  0.00  1.00  0.00  0.00  0.53  0.00
  HS02004478WS02006287    1.00   0.18  0.00  0.00  0.54  0.28  0.00  0.00  0.50  0.00
  HS02004479HS02004480    1.00   0.06  0.00  0.00  0.94  0.00  0.00  0.00  0.16  0.00
  HS02004480HS02004478    1.00   0.15  0.00  0.00  0.47  0.00  0.00  0.37  0.00  0.00
  HS02004770HS02004777    1.00   0.00  0.15  0.00  0.85  0.00  0.00  0.00  0.05  0.00
  HS02004777HS02004785    1.00   0.00  0.00  0.00  1.00  0.00  0.00  0.00  0.18  0.00
  HS02004785HS02004788    1.00   0.00  0.00  0.00  1.00  0.00  0.00  0.00  0.00  0.00
  HS02004788HS02004792    1.00   0.00  0.00  0.00  1.00  0.00  0.00  0.00  0.91  0.00
  HS02004792HS02004799    1.00   0.00  0.00  0.00  0.99  0.01  0.00  0.00  0.87  0.00
  HS02004799HS02004480    1.00   0.00  0.06  0.00  0.82  0.00  0.12  0.00  0.00  0.00
  HS02004802HS02004478    1.00   0.15  0.01  0.00  0.84  0.00  0.00  0.00  0.03  0.00
  HS02004807HS02004802    1.00   0.15  0.00  0.00  0.84  0.00  0.00  0.01  0.01  0.00
  HS02004817HS02004807    1.00   0.00  0.15  0.00  0.85  0.00  0.00  0.00  0.01  0.00
  HS02004817HS02004824    1.00   0.00  0.00  0.00  1.00  0.00  0.00  0.00  0.83  0.00
  HS02004824HS02004830    1.00   0.00  0.00  0.00  1.00  0.00  0.00  0.00  0.01  0.00
  HS02004830HS02004837    1.00   0.00  0.00  0.00  1.00  0.00  0.00  0.00  0.90  0.00
  HS02004837HS02004842    1.00   0.00  0.00  0.00  1.00  0.00  0.00  0.00  0.14  0.00
  HS02004842HS02004848    1.00   0.00  0.15  0.00  0.85  0.00  0.00  0.00  0.47  0.00
  HS02004848HS02004852    1.00   0.15  0.00  0.00  0.85  0.00  0.00  0.00  0.63  0.00
  HS02004852HS02004856    1.00   0.15  0.01  0.00  0.84  0.00  0.00  0.00  0.63  0.00
  HS02004856HS02004862    1.00   0.00  0.20  0.00  0.80  0.00  0.00  0.00  0.68  0.00
  HS02004862HS02004870    1.00   0.00  0.00  0.00  1.00  0.00  0.00  0.00  0.06  0.00
  HS02004870HS02004876    1.00   0.00  0.00  0.00  0.97  0.03  0.00  0.00  0.86  0.00
  HS02004876HS02004881    1.00   0.01  0.00  0.00  0.77  0.22  0.00  0.00  0.00  0.00
  HS02004881HS02006253    1.00   0.00  0.08  0.00  0.63  0.00  0.00  0.29  0.45  0.00
  HS02004901HS02004770    1.00   0.15  0.00  0.00  0.85  0.00  0.00  0.00  0.01  0.00
  WS02001211WS02001212    1.00   0.00  0.03  0.00  0.97  0.00  0.00  0.00  0.00  0.00
  WS02001212WS02001213    1.00   0.03  0.01  0.00  0.61  0.00  0.36  0.00  0.00  0.00
  WS02001213WS02003059    1.00   0.00  0.00  0.00  1.00  0.00  0.00  0.00  0.00  0.00
  WS02003059WS02003060    1.00   0.00  0.00  0.00  1.00  0.00  0.00  0.00  0.04  0.00
  WS02003060WS02003069    1.00   0.00  0.00  0.00  0.97  0.03  0.00  0.00  0.33  0.00
  WS02003066WSF200        1.00   0.09  0.00  0.00  0.00  0.91  0.00  0.00  0.55  0.00
  WS02003067WS02003066    1.00   0.09  0.00  0.00  0.91  0.00  0.00  0.00  0.00  0.00
  WS02003069WS02003072    1.00   0.00  0.00  0.00  1.00  0.00  0.00  0.00  0.38  0.00
  WS02003072WS02003073    1.00   0.00  0.00  0.00  0.00  0.00  0.00  1.00  0.00  0.00
  WS02004138WS02004139    1.00   0.01  0.00  0.00  0.96  0.02  0.00  0.00  0.97  0.00
  WS02004139WS02001211    1.00   0.00  0.00  0.00  1.00  0.00  0.00  0.00  0.01  0.00
  WS02004401WS02004402    1.00   0.03  0.00  0.00  0.97  0.00  0.00  0.00  0.00  0.00
  WS02004402WS02004403    1.00   0.03  0.00  0.00  0.96  0.00  0.00  0.00  0.00  0.00
  WS02004403WS02004404    1.00   0.00  0.04  0.00  0.96  0.00  0.00  0.00  0.00  0.00
  WS02004404WS02004405    1.00   0.00  0.00  0.00  1.00  0.00  0.00  0.00  0.00  0.00
  WS02004405WS02004406    1.00   0.00  0.00  0.00  1.00  0.00  0.00  0.00  0.00  0.00
  WS02004406WS02004407    1.00   0.00  0.06  0.00  0.94  0.00  0.00  0.00  0.00  0.00
  WS02004407WS02004409    1.00   0.07  0.00  0.00  0.92  0.02  0.00  0.00  0.84  0.00
  WS02004409WS02004410    1.00   0.07  0.00  0.00  0.93  0.00  0.00  0.00  0.00  0.00
  WS02004410WS02004411    1.00   0.07  0.00  0.00  0.93  0.00  0.00  0.00  0.00  0.00
  WS02004411WS02004412    1.00   0.07  0.00  0.00  0.93  0.00  0.00  0.00  0.00  0.00
  WS02004412WS02004413    1.00   0.08  0.00  0.00  0.92  0.00  0.00  0.00  0.00  0.00
  WS02004413WS02003067    1.00   0.08  0.01  0.00  0.00  0.00  0.91  0.00  0.00  0.00
  WS02006109WS02006110    1.00   0.00  0.00  0.00  0.99  0.00  0.01  0.00  0.00  0.00
  WS02006110WS02006113    1.00   0.00  0.01  0.00  0.99  0.00  0.00  0.00  0.00  0.00
  WS02006111WS02006112    1.00   0.02  0.00  0.00  0.97  0.01  0.00  0.01  0.75  0.00
  WS02006112WS02006115    1.00   0.02  0.01  0.00  0.96  0.00  0.01  0.00  0.00  0.00
  WS02006113WS02006111    1.00   0.01  0.00  0.00  0.18  0.80  0.00  0.00  0.15  0.00
  WS02006115WS02006116    1.00   0.03  0.00  0.00  0.95  0.00  0.00  0.02  0.00  0.00
  WS02006116WS02004401    1.00   0.03  0.00  0.00  0.97  0.00  0.00  0.00  0.00  0.00
  WS02006228WS02006109    1.00   0.00  0.00  0.00  1.00  0.00  0.00  0.00  0.01  0.00
  WS02006229WS02006228    1.00   0.00  0.00  0.00  0.99  0.00  0.00  0.01  0.00  0.00
  WS02006230WS02006229    1.00   0.00  0.00  0.00  0.99  0.00  0.00  0.01  0.01  0.00
  WS02006231WS02006230    1.00   0.01  0.00  0.00  0.55  0.00  0.44  0.00  0.00  0.00
  WS02006232WS02006231    1.00   0.00  0.00  0.00  0.99  0.00  0.00  0.00  0.00  0.00
  WS02006234WS02006232    1.00   0.00  0.00  0.00  0.99  0.00  0.00  0.00  0.00  0.00
  WS02006235WS02006234    1.00   0.00  0.00  0.00  0.95  0.00  0.05  0.00  0.00  0.00
  WS02006238WS02006235    1.00   0.00  0.00  0.00  1.00  0.00  0.00  0.00  0.00  0.00
  WS02006239WS02006238    1.00   0.00  0.00  0.00  1.00  0.00  0.00  0.00  0.05  0.00
  WS02006240WS02006239    1.00   0.00  0.00  0.00  0.90  0.00  0.00  0.10  0.01  0.00
  WS02006242WS02006240    1.00   0.00  0.00  0.00  0.99  0.00  0.00  0.00  0.00  0.00
  WS02006243WS02006242    1.00   0.00  0.00  0.00  1.00  0.00  0.00  0.00  0.36  0.00
  WS02006245WS02006243    1.00   0.00  0.00  0.00  0.93  0.00  0.00  0.07  0.00  0.00
  WS02006247WS02006245    1.00   0.00  0.00  0.00  0.99  0.00  0.00  0.01  0.00  0.00
  WS02006248WS02006247    1.00   0.00  0.00  0.00  1.00  0.00  0.00  0.00  0.37  0.00
  WS02006249WS02006248    1.00   0.00  0.00  0.00  0.76  0.00  0.24  0.00  0.00  0.00
  WS02006251WS02006249    1.00   0.00  0.00  0.00  1.00  0.00  0.00  0.00  0.35  0.00
  WS02006252WS02006251    1.00   0.00  0.05  0.00  0.26  0.00  0.69  0.00  0.06  0.00
  WS02006253WS02006251    1.00   0.00  0.00  0.00  1.00  0.00  0.00  0.00  0.00  0.00
  WS02006256WS02006235    1.00   0.00  0.00  0.00  1.00  0.00  0.00  0.00  0.00  0.00
  WS02006280WS02006229    1.00   0.16  0.00  0.00  0.14  0.04  0.00  0.67  0.01  0.00
  WS02006284WS02006280    1.00   0.16  0.00  0.00  0.10  0.01  0.00  0.74  0.00  0.00
  WS02006287WS02006284    1.00   0.13  0.05  0.00  0.44  0.38  0.00  0.00  0.58  0.00
  WSF200WS02003060        1.00   0.00  0.09  0.00  0.43  0.48  0.00  0.00  0.38  0.00
  YS02001580YS02001583    1.00   0.26  0.49  0.00  0.25  0.00  0.00  0.00  0.61  0.00
  YS02001583YS02001586    1.00   0.22  0.44  0.00  0.34  0.00  0.00  0.00  0.61  0.00
  YS02001586YS02001590    1.00   0.15  0.00  0.00  0.55  0.09  0.00  0.22  0.46  0.00
  YS02001590YS02001593    1.00   0.15  0.01  0.00  0.10  0.00  0.74  0.00  0.00  0.00
  YS02001593YS02001596    1.00   0.16  0.00  0.00  0.12  0.01  0.00  0.71  0.02  0.00
  YS02001596YS02001600    1.00   0.16  0.00  0.00  0.21  0.05  0.00  0.59  0.07  0.00
  YS02001600YS02001601    1.00   0.15  0.01  0.00  0.84  0.00  0.00  0.00  0.53  0.00
  YS02001601YS02001602    1.00   0.15  0.01  0.00  0.84  0.00  0.00  0.00  0.00  0.00
  YS02001602YS02001605    1.00   0.16  0.00  0.00  0.84  0.00  0.00  0.00  0.00  0.00
  YS02001605YS02001607    1.00   0.16  0.00  0.00  0.84  0.00  0.00  0.00  0.00  0.00
  YS02001607YS02001610    1.00   0.15  0.01  0.00  0.84  0.00  0.00  0.00  0.03  0.00
  YS02001610YS02001613    1.00   0.15  0.00  0.00  0.85  0.00  0.00  0.00  0.02  0.00
  YS02001613YS02001616    1.00   0.15  0.00  0.00  0.85  0.00  0.00  0.00  0.01  0.00
  YS02001616YS02001619    1.00   0.15  0.00  0.00  0.85  0.00  0.00  0.00  0.00  0.00
  YS02001619YS02001622    1.00   0.15  0.00  0.00  0.85  0.00  0.00  0.00  0.09  0.00
  YS02001622YS02001625    1.00   0.15  0.00  0.00  0.85  0.00  0.00  0.00  0.09  0.00
  YS02001625YS02001629    1.00   0.15  0.06  0.00  0.14  0.00  0.65  0.00  0.00  0.00
  YS02001629YS02163301    1.00   0.18  0.01  0.00  0.81  0.00  0.00  0.00  0.00  0.00
  YS02001633YS02163601    1.00   0.00  0.00  0.00  1.00  0.00  0.00  0.00  0.21  0.00
  YS02001641YS02001644    1.00   0.00  0.00  0.00  1.00  0.00  0.00  0.00  0.00  0.00
  YS02001644YS02001647    1.00   0.00  0.20  0.00  0.80  0.00  0.00  0.00  0.00  0.00
  YS02001647YS02001649    1.00   0.00  0.20  0.00  0.26  0.54  0.00  0.00  0.46  0.00
  YS02001649YS02001757    1.00   0.00  0.00  0.00  0.52  0.48  0.00  0.00  0.84  0.00
  YS02001652YS02001649    1.00   0.00  0.00  0.00  0.95  0.05  0.00  0.00  0.72  0.00
  YS02001655YS02001652    1.00   0.00  0.00  0.00  0.16  0.04  0.00  0.80  0.11  0.00
  YS02001658YS02001655    1.00   0.00  0.16  0.00  0.44  0.39  0.00  0.00  0.68  0.00
  YS02001661YS02001658    1.00   0.16  0.00  0.00  0.19  0.65  0.00  0.00  0.67  0.00
  YS02001664YS02001661    1.00   0.15  0.00  0.00  0.70  0.15  0.00  0.00  0.83  0.00
  YS02001745YS02001748    1.00   0.00  0.00  0.00  0.00  0.01  0.00  0.99  0.01  0.00
  YS02001748YS02001751    1.00   0.00  0.00  0.00  0.63  0.37  0.00  0.00  0.80  0.00
  YS02001751YS02001754    1.00   0.00  0.00  0.00  0.10  0.01  0.00  0.89  0.05  0.00
  YS02001754YS02001757    1.00   0.00  0.00  0.00  1.00  0.00  0.00  0.00  0.88  0.00
  YS02001757CaochengTiaoxuchi    1.00   0.00  0.00  0.00  0.52  0.48  0.00  0.00  0.45  0.00
  YS02001759YS02001757    1.00   0.00  0.00  0.00  1.00  0.00  0.00  0.00  0.67  0.00
  YS02001762YS02001759    1.00   0.00  0.00  0.00  1.00  0.00  0.00  0.00  0.07  0.00
  YS02001765YS02001762    1.00   0.00  0.00  0.00  1.00  0.00  0.00  0.00  0.72  0.00
  YS02001767YS02001765    1.00   0.00  0.00  0.00  1.00  0.00  0.00  0.00  0.00  0.00
  YS02001770YS02001767    1.00   0.00  0.00  0.00  1.00  0.00  0.00  0.00  0.00  0.00
  YS02001774YS02001770    1.00   0.00  0.16  0.00  0.84  0.00  0.00  0.00  0.06  0.00
  YS02001779YS02001774    1.00   0.00  0.00  0.00  1.00  0.00  0.00  0.00  0.79  0.00
  YS02001783YS02001784    1.00   0.00  0.21  0.00  0.79  0.00  0.00  0.00  0.43  0.00
  YS02001784YS02001785    1.00   0.00  0.00  0.00  1.00  0.00  0.00  0.00  0.25  0.00
  YS02001786YS02001788    1.00   0.00  0.00  0.00  0.72  0.28  0.00  0.00  0.00  0.00
  YS02001788YS02001790    1.00   0.00  0.00  0.00  0.28  0.72  0.00  0.00  0.82  0.00
  YS02001790YS02001791    1.00   0.00  0.00  0.00  0.06  0.94  0.00  0.00  0.16  0.00
  YS02001791YS02001793    1.00   0.00  0.00  0.00  0.06  0.94  0.00  0.00  0.01  0.00
  YS02001793JiankangQianchi    1.00   0.00  0.00  0.00  0.18  0.82  0.00  0.00  0.14  0.00
  YS02001882YS02001884    1.00   0.17  0.01  0.00  0.81  0.00  0.00  0.00  0.00  0.00
  YS02001884YS02001887    1.00   0.10  0.04  0.00  0.86  0.00  0.00  0.00  0.00  0.00
  YS02001887YS02001890    1.00   0.00  0.00  0.00  0.95  0.00  0.04  0.00  0.00  0.00
  YS02001890YS02001895    1.00   0.00  0.19  0.00  0.80  0.00  0.00  0.00  0.00  0.00
  YS02001895YS02001898    1.00   0.20  0.00  0.00  0.79  0.00  0.01  0.00  0.00  0.00
  YS02001898YS02001901    1.00   0.19  0.01  0.00  0.80  0.00  0.00  0.00  0.01  0.00
  YS02001901YS02001904    1.00   0.19  0.00  0.00  0.81  0.00  0.00  0.00  0.00  0.00
  YS02001904YS02001907    1.00   0.00  0.19  0.00  0.81  0.00  0.00  0.00  0.00  0.00
  YS02001907YS02006553    1.00   0.00  0.02  0.00  0.98  0.00  0.00  0.00  0.00  0.00
  YS02001910YS02001907    1.00   0.00  0.00  0.00  0.96  0.01  0.00  0.03  0.17  0.00
  YS02001915YS02001910    1.00   0.00  0.00  0.00  0.96  0.04  0.00  0.00  0.24  0.00
  YS02001918YS02001915    1.00   0.00  0.00  0.00  0.97  0.03  0.00  0.00  0.71  0.00
  YS02001920YS02001918    1.00   0.00  0.00  0.00  1.00  0.00  0.00  0.00  0.00  0.00
  YS02001923YS02001920    1.00   0.00  0.00  0.00  1.00  0.00  0.00  0.00  0.94  0.00
  YS02001926YS02001923    1.00   0.00  0.12  0.00  0.04  0.00  0.84  0.00  0.00  0.00
  YS02001929YS02001926    1.00   0.00  0.15  0.00  0.85  0.00  0.00  0.00  0.80  0.00
  YS02006553YS02006556    1.00   0.01  0.00  0.00  0.99  0.00  0.00  0.00  0.04  0.00
  YS02006556YS02006558    1.00   0.00  0.00  0.00  1.00  0.00  0.00  0.00  0.00  0.00
  YS02006558YS02006561    1.00   0.21  0.00  0.00  0.04  0.75  0.00  0.00  0.25  0.00
  YS02006561YS02001783    1.00   0.21  0.00  0.00  0.12  0.67  0.00  0.00  0.64  0.00
  YS02163301YS02001633    1.00   0.00  0.18  0.00  0.82  0.00  0.00  0.00  0.00  0.00
  YS02163601YS02164001    1.00   0.00  0.12  0.00  0.88  0.00  0.00  0.00  0.00  0.00
  YS02164001YS02001641    1.00   0.00  0.12  0.00  0.88  0.00  0.00  0.00  0.08  0.00
  YSB1154YSB6556          1.00   0.15  0.00  0.00  0.85  0.00  0.00  0.00  0.03  0.00
  YSB1171HS02004479       1.00   0.07  0.00  0.00  0.91  0.00  0.00  0.02  0.15  0.00
  YSB1174YSB1171          1.00   0.08  0.05  0.00  0.87  0.00  0.00  0.00  0.00  0.00
  YSB6556YSB1171          1.00   0.07  0.08  0.00  0.85  0.00  0.00  0.00  0.00  0.00
  
  
  *************************
  Conduit Surcharge Summary
  *************************
  
  ----------------------------------------------------------------------------
                                                           Hours        Hours 
                         --------- Hours Full --------   Above Full   Capacity
  Conduit                Both Ends  Upstream  Dnstream   Normal Flow   Limited
  ----------------------------------------------------------------------------
  HS02004478WS02006287        0.22      0.22      0.37      0.01         0.01
  HS02004479HS02004480        0.38      0.38      0.40      0.01         0.01
  HS02004480HS02004478        0.32      0.38      0.32      1.29         0.32
  HS02004770HS02004777        0.30      0.30      0.30      0.11         0.08
  HS02004777HS02004785        0.25      0.25      0.30      0.01         0.01
  HS02004785HS02004788        0.24      0.25      0.24      0.97         0.23
  HS02004788HS02004792        0.24      0.24      0.35      0.01         0.01
  HS02004792HS02004799        0.35      0.35      0.44      0.01         0.01
  HS02004799HS02004480        0.38      0.38      0.44      0.50         0.01
  HS02004802HS02004478        0.33      0.33      0.38      0.01         0.01
  HS02004807HS02004802        0.36      0.36      0.38      0.01         0.01
  HS02004817HS02004807        0.36      0.36      0.81      0.01         0.01
  HS02004817HS02004824        0.25      0.25      0.81      0.01         0.01
  HS02004824HS02004830        0.22      0.22      0.25      0.01         0.01
  HS02004830HS02004837        0.18      0.18      0.22      0.01         0.01
  HS02004837HS02004842        0.18      0.18      0.30      0.01         0.01
  HS02004842HS02004848        0.13      0.13      0.30      0.01         0.01
  HS02004848HS02004852        0.13      0.13      0.15      0.04         0.01
  HS02004852HS02004856        0.15      0.15      0.17      0.03         0.01
  HS02004856HS02004862        0.15      0.15      0.18      0.01         0.01
  HS02004862HS02004870        0.18      0.18      0.20      0.02         0.01
  HS02004870HS02004876        0.20      0.20      0.24      0.01         0.01
  HS02004876HS02004881        0.22      0.24      0.22      0.99         0.22
  HS02004881HS02006253        0.22      0.22      1.51      0.01         0.01
  HS02004901HS02004770        0.30      0.30      0.31      0.01         0.01
  WS02003072WS02003073        0.01      0.01      0.01      3.22         0.01
  WS02004401WS02004402        1.09      1.09      1.16      0.98         0.97
  WS02004402WS02004403        1.16      1.16      1.17      1.10         1.08
  WS02004403WS02004404        1.17      1.17      1.36      0.01         0.01
  WS02004404WS02004405        1.28      1.36      1.28      3.97         1.27
  WS02004405WS02004406        1.26      1.28      1.26      2.00         1.26
  WS02004406WS02004407        0.01      0.01      1.26      0.01         0.01
  WS02004407WS02004409        0.01      0.01      0.59      0.01         0.01
  WS02004409WS02004410        0.56      0.59      0.56      1.05         0.56
  WS02004410WS02004411        0.53      0.56      0.53      1.07         0.53
  WS02004411WS02004412        0.45      0.53      0.45      1.09         0.45
  WS02004412WS02004413        0.45      0.45      0.90      0.01         0.01
  WS02004413WS02003067        0.01      0.01      0.90      0.01         0.01
  WS02006109WS02006110        1.79      1.79      2.39      1.79         0.01
  WS02006110WS02006113        0.84      0.84      2.31      0.31         0.01
  WS02006111WS02006112        0.81      0.81      2.88      0.01         0.01
  WS02006112WS02006115        1.05      1.05      2.09      0.01         0.01
  WS02006113WS02006111        0.82      0.84      0.82      0.98         0.82
  WS02006115WS02006116        1.06      1.06      1.06      1.06         1.02
  WS02006116WS02004401        1.08      1.08      1.09      1.09         1.06
  WS02006228WS02006109        2.23      2.39      2.23      3.46         2.22
  WS02006229WS02006228        2.19      2.25      2.19      2.87         2.19
  WS02006230WS02006229        2.53      2.72      2.54      3.98         1.90
  WS02006231WS02006230        1.40      1.40      1.93      3.74         0.61
  WS02006232WS02006231        1.87      1.87      2.28      0.01         0.09
  WS02006234WS02006232        2.04      2.04      2.28      0.01         0.01
  WS02006235WS02006234        1.99      1.99      2.06      3.52         0.60
  WS02006238WS02006235        2.08      2.08      2.28      0.01         0.20
  WS02006239WS02006238        2.13      2.20      2.14      1.68         0.72
  WS02006240WS02006239        1.99      2.00      2.00      1.68         0.66
  WS02006242WS02006240        1.98      1.98      2.41      2.31         0.53
  WS02006243WS02006242        1.97      1.97      2.24      0.01         0.01
  WS02006245WS02006243        1.90      1.91      1.93      1.22         0.64
  WS02006247WS02006245        1.89      1.99      1.89      3.11         1.04
  WS02006248WS02006247        1.83      1.83      1.94      0.03         0.01
  WS02006249WS02006248        1.76      1.76      1.86      2.39         0.01
  WS02006251WS02006249        1.79      1.83      1.86      2.07         1.42
  WS02006252WS02006251        2.32      2.32      2.33      1.80         0.01
  WS02006253WS02006251        1.79      1.80      1.94      0.49         0.03
  WS02006256WS02006235        3.68      3.69      5.72      0.18         0.01
  WS02006280WS02006229        0.46      0.46      0.56      0.01         0.01
  WS02006284WS02006280        0.39      0.39      0.45      0.01         0.01
  WS02006287WS02006284        0.32      0.32      0.40      0.01         0.01
  YS02001580YS02001583        0.24      0.24      0.29      0.01         0.01
  YS02001583YS02001586        0.25      0.25      0.40      0.01         0.01
  YS02001586YS02001590        0.40      0.40      0.46      0.01         0.01
  YS02001590YS02001593        0.46      0.46      0.48      0.50         0.01
  YS02001593YS02001596        0.47      0.47      0.55      0.01         0.01
  YS02001596YS02001600        0.58      0.58      0.67      0.01         0.01
  YS02001600YS02001601        0.72      0.72      0.99      0.01         0.01
  YS02001601YS02001602        0.88      0.88      1.03      0.69         0.01
  YS02001602YS02001605        0.83      0.83      0.88      1.81         0.01
  YS02001605YS02001607        0.79      0.83      0.79      0.94         0.79
  YS02001607YS02001610        0.40      0.40      0.42      0.01         0.01
  YS02001610YS02001613        0.39      0.39      0.42      0.01         0.01
  YS02001613YS02001616        0.35      0.35      0.39      0.01         0.01
  YS02001616YS02001619        0.33      0.33      0.35      0.01         0.01
  YS02001619YS02001622        0.32      0.33      0.32      0.49         0.31
  YS02001622YS02001625        0.32      0.32      0.50      0.01         0.01
  YS02001625YS02001629        0.23      0.23      0.50      0.01         0.01
  YS02001629YS02163301        0.48      0.48      0.49      0.34         0.31
  YS02001633YS02163601        0.51      0.51      0.53      0.41         0.40
  YS02001641YS02001644        0.36      0.41      0.36      1.08         0.36
  YS02001644YS02001647        0.13      0.13      0.36      0.01         0.01
  YS02001647YS02001649        0.13      0.13      0.17      0.01         0.01
  YS02001649YS02001757        0.14      0.17      0.14      0.25         0.14
  YS02001652YS02001649        0.07      0.07      0.17      0.01         0.01
  YS02001655YS02001652        0.01      0.01      0.05      0.01         0.01
  YS02001754YS02001757        0.01      0.01      0.14      0.01         0.01
  YS02001757CaochengTiaoxuchi        0.01      0.14      0.01      0.26         0.01
  YS02001759YS02001757        0.11      0.11      0.14      0.01         0.01
  YS02001762YS02001759        0.09      0.09      0.11      0.01         0.01
  YS02001765YS02001762        0.07      0.07      0.09      0.01         0.01
  YS02001767YS02001765        0.05      0.05      0.07      0.01         0.01
  YS02001770YS02001767        0.05      0.06      0.05      0.35         0.04
  YS02001774YS02001770        0.06      0.06      0.10      0.01         0.01
  YS02001779YS02001774        0.01      0.01      0.10      0.01         0.01
  YS02001783YS02001784        0.32      0.35      0.33      0.41         0.29
  YS02001784YS02001785        0.21      0.33      0.21      0.61         0.20
  YS02001786YS02001788        0.08      0.21      0.08      0.52         0.07
  YS02001788YS02001790        0.08      0.08      0.28      0.01         0.01
  YS02001790YS02001791        0.27      0.28      0.28      0.27         0.03
  YS02001791YS02001793        0.28      0.28      0.35      0.01         0.01
  YS02001793JiankangQianchi        0.33      0.33      0.76      0.01         0.01
  YS02001882YS02001884        0.26      0.26      0.27      0.01         0.01
  YS02001884YS02001887        0.29      0.29      0.30      0.01         0.01
  YS02001887YS02001890        0.31      0.31      0.32      0.01         0.01
  YS02001890YS02001895        0.25      0.25      0.34      0.01         0.01
  YS02001895YS02001898        0.24      0.24      0.25      0.01         0.01
  YS02001898YS02001901        0.25      0.25      0.28      0.01         0.01
  YS02001901YS02001904        0.28      0.28      0.28      0.01         0.01
  YS02001904YS02001907        0.28      0.28      0.50      0.01         0.01
  YS02001907YS02006553        0.61      0.61      0.66      0.01         0.01
  YS02001910YS02001907        0.34      0.34      0.48      0.01         0.01
  YS02001915YS02001910        0.25      0.25      0.34      0.01         0.01
  YS02001918YS02001915        0.16      0.16      0.25      0.01         0.01
  YS02001920YS02001918        0.16      0.16      0.17      0.01         0.01
  YS02001923YS02001920        0.09      0.09      0.17      0.01         0.01
  YS02001926YS02001923        0.01      0.01      0.01      0.01         0.01
  YS02001929YS02001926        0.01      0.01      0.01      0.01         0.01
  YS02006553YS02006556        0.41      0.41      0.50      0.01         0.01
  YS02006556YS02006558        0.44      0.44      0.51      0.01         0.01
  YS02006558YS02006561        0.19      0.40      0.19      0.57         0.19
  YS02006561YS02001783        0.12      0.12      0.35      0.01         0.01
  YS02163301YS02001633        0.49      0.49      0.53      0.01         0.01
  YS02163601YS02164001        0.43      0.43      0.53      0.28         0.01
  YS02164001YS02001641        0.41      0.43      0.41      0.58         0.41
  YSB1154YSB6556              0.42      0.42      0.53      0.01         0.01
  YSB1171HS02004479           0.34      0.34      0.53      0.01         0.01
  YSB1174YSB1171              0.47      0.47      0.72      0.01         0.01
  YSB6556YSB1171              0.42      0.42      0.85      0.01         0.01
  
  
  ***************
  Pumping Summary
  ***************
  
  ---------------------------------------------------------------------------------------------------------
                                                  Min       Avg       Max     Total     Power    % Time Off
                        Percent   Number of      Flow      Flow      Flow    Volume     Usage    Pump Curve
  Pump                 Utilized   Start-Ups       LPS       LPS       LPS  10^6 ltr     Kw-hr    Low   High
  ---------------------------------------------------------------------------------------------------------
  CC-R1                   49.93           9      0.00    468.38    683.00     4.152     68.28    0.0  100.0
  CC-R2                   25.04           8      0.00    361.19    683.00     1.682     27.64    0.0  100.0
  CC-S1                   80.52           7      0.00    150.77    200.00     2.235     17.87    0.0   65.5
  CC-S2                   44.37          12      0.00    147.30    200.00     1.343     11.14    0.0   60.6
  JK-R1                   72.18           6      0.00    123.14   1000.00     1.771     12.53    0.0    0.0
  JK-R2                   22.11           6      0.00    213.70   1000.00     0.666      3.94    0.0    0.0
  JK-S                    38.79          12      0.00     51.05    300.00     0.447      9.15    0.0    0.0
  XR-1                    97.21           1      0.00     95.00     95.00     1.995      8.84    0.0    0.0
  XR-2                    91.93           1      0.00     95.00     95.00     1.886      8.00    0.0    0.0
  XR-3                     0.00           0      0.00      0.00      0.00     0.000      0.00    0.0    0.0
  XR-4                     0.00           0      0.00      0.00      0.00     0.000      0.00    0.0    0.0
  

  Analysis begun on:  Mon Aug 22 16:55:48 2022
  Analysis ended on:  Mon Aug 22 16:55:56 2022
  Total elapsed time: 00:00:08