
  EPA STORM WATER MANAGEMENT MODEL - VERSION 5.1 (Build 5.3.0.dev0)
  --------------------------------------------------------------

  WARNING 04: minimum elevation drop used for Conduit WS02004404WS02004405
  WARNING 03: negative offset ignored for Link YS02001904YS02001907
  
  *********************************************************
  NOTE: The summary statistics displayed in this report are
  based on results found at every computational time step,  
  not just on results from each reporting time step.
  *********************************************************
  
  ****************
  Analysis Options
  ****************
  Flow Units ............... LPS
  Process Models:
    Rainfall/Runoff ........ YES
    RDII ................... NO
    Snowmelt ............... NO
    Groundwater ............ NO
    Flow Routing ........... YES
    Ponding Allowed ........ NO
    Water Quality .......... NO
  Infiltration Method ...... HORTON
  Flow Routing Method ...... DYNWAVE
  Surcharge Method ......... EXTRAN
  Starting Date ............ 01/01/2000 00:00:00
  Ending Date .............. 01/01/2000 06:00:00
  Antecedent Dry Days ...... 8.0
  Report Time Step ......... 00:01:00
  Wet Time Step ............ 00:01:00
  Dry Time Step ............ 00:01:00
  Routing Time Step ........ 30.00 sec
  Variable Time Step ....... YES
  Maximum Trials ........... 8
  Number of Threads ........ 4
  Head Tolerance ........... 0.001500 m
  
  
  **************************        Volume         Depth
  Runoff Quantity Continuity     hectare-m            mm
  **************************     ---------       -------
  Total Precipitation ......         1.402        23.145
  Evaporation Loss .........         0.000         0.000
  Infiltration Loss ........         0.203         3.357
  Surface Runoff ...........         1.134        18.728
  Final Storage ............         0.064         1.064
  Continuity Error (%) .....        -0.015
  
  
  **************************        Volume        Volume
  Flow Routing Continuity        hectare-m      10^6 ltr
  **************************     ---------     ---------
  Dry Weather Inflow .......         0.472         4.722
  Wet Weather Inflow .......         1.134        11.343
  Groundwater Inflow .......         0.000         0.000
  RDII Inflow ..............         0.000         0.000
  External Inflow ..........         0.078         0.784
  External Outflow .........         1.829        18.290
  Flooding Loss ............         0.216         2.157
  Evaporation Loss .........         0.000         0.000
  Exfiltration Loss ........         0.000         0.000
  Initial Stored Volume ....         0.303         3.031
  Final Stored Volume ......         0.169         1.689
  Continuity Error (%) .....       -11.350
  
  
  *************************
  Highest Continuity Errors
  *************************
  Node JK-storage (-59.02%)
  Node CC-storage (-15.84%)
  Node HS02004842 (7.32%)
  Node YS02001884 (6.81%)
  Node YS02001774 (4.66%)
  
  
  ***************************
  Time-Step Critical Elements
  ***************************
  Link WS02006252WS02006251 (56.01%)
  Link WS02006280WS02006229 (20.32%)
  Link WS02006238WS02006235 (8.73%)
  Link YS02001793JiankangQianchi (4.21%)
  Link WS02003066WSF200 (1.73%)
  
  
  ********************************
  Highest Flow Instability Indexes
  ********************************
  Link WS02006113WS02006111 (39)
  Link WS02006252WS02006251 (11)
  Link WS02006111WS02006112 (10)
  Link WS02004404WS02004405 (10)
  Link WS02006238WS02006235 (8)
  
  
  *************************
  Routing Time Step Summary
  *************************
  Minimum Time Step           :     0.50 sec
  Average Time Step           :     1.56 sec
  Maximum Time Step           :     6.43 sec
  Percent in Steady State     :    -0.00
  Average Iterations per Step :     2.61
  Percent Not Converging      :     5.07
  
  
  ***************************
  Subcatchment Runoff Summary
  ***************************
  
  ------------------------------------------------------------------------------------------------------------------------------
                            Total      Total      Total      Total     Imperv       Perv      Total       Total     Peak  Runoff
                           Precip      Runon       Evap      Infil     Runoff     Runoff     Runoff      Runoff   Runoff   Coeff
  Subcatchment                 mm         mm         mm         mm         mm         mm         mm    10^6 ltr      LPS
  ------------------------------------------------------------------------------------------------------------------------------
  sub0                      23.14       0.00       0.00       0.87      20.25       0.75      21.01        0.02    10.08   0.908
  sub1                      23.14       0.00       0.00       1.49      19.29       1.06      20.35        0.14    67.20   0.879
  sub10                     23.14       0.00       0.00       1.04      19.96       0.81      20.76        0.23   114.73   0.897
  sub11                     23.14       0.00       0.00       1.03      19.99       0.83      20.81        0.24   126.19   0.899
  sub12                     23.14       0.00       0.00       1.67      18.94       1.34      20.27        0.18   101.11   0.876
  sub14                     23.14       0.00       0.00       1.17      19.76       0.91      20.67        0.20   100.15   0.893
  sub15                     23.14       0.00       0.00       4.56      15.19       2.38      17.58        0.30   147.63   0.759
  sub16                     23.14       0.00       0.00       4.76      14.58       2.88      17.46        0.18    94.54   0.754
  sub17                     23.14       0.00       0.00       4.63      14.79       2.77      17.56        0.15    77.46   0.759
  sub2                      23.14       0.00       0.00       6.24      13.62       2.32      15.94        0.15    65.90   0.689
  sub22                     23.14       0.00       0.00       6.82      12.39       3.13      15.52        0.98   470.02   0.671
  sub23                     23.14       0.00       0.00       5.63      13.69       2.93      16.63        0.79   392.61   0.718
  sub3                      23.14       0.00       0.00       6.55      13.55       2.01      15.56        0.35   144.01   0.672
  sub4                      23.14       0.00       0.00       1.64      19.00       0.90      19.90        0.42   166.20   0.860
  sub5                      23.14       0.00       0.00       0.91      20.16       0.71      20.87        0.24   117.05   0.902
  sub60                     23.14       0.00       0.00       1.58      19.13       1.20      20.33        0.27   140.85   0.878
  sub61                     23.14       0.00       0.00       2.29      18.05       1.65      19.69        0.36   191.42   0.851
  sub62                     23.14       0.00       0.00       1.05      19.95       0.80      20.75        0.57   282.61   0.896
  sub63                     23.14       0.00       0.00       4.22      15.43       2.50      17.93        0.41   207.23   0.775
  sub64                     23.14       0.00       0.00       2.13      18.40       1.34      19.73        0.47   228.10   0.853
  sub65                     23.14       0.00       0.00       1.85      18.80       1.16      19.96        0.55   257.79   0.862
  sub66                     23.14       0.00       0.00       4.94      15.25       1.78      17.02        0.79   327.16   0.736
  sub67                     23.14       0.00       0.00       1.01      20.02       0.84      20.86        0.39   218.70   0.901
  sub68                     23.14       0.00       0.00       1.90      18.67       1.35      20.02        0.55   281.14   0.865
  sub69                     23.14       0.00       0.00       1.63      19.48       1.84      21.32        0.79   350.69   0.921
  sub7                      23.14       0.00       0.00       1.16      19.78       0.93      20.71        0.07    37.41   0.895
  sub70                     23.14       0.00       0.00       5.08      14.99       2.79      17.77        0.51   189.91   0.768
  sub71                     23.14       0.00       0.00       1.08      19.87       0.77      20.65        0.54   253.75   0.892
  sub72                     23.14       0.00       0.00       0.96      19.98       0.66      20.64        0.28   123.73   0.892
  sub8                      23.14       0.00       0.00       1.17      19.76       0.92      20.68        0.13    67.93   0.894
  sub9                      23.14       0.00       0.00       1.17      19.76       0.91      20.67        0.10    50.76   0.893
  
  
  ******************
  Node Depth Summary
  ******************
  
  ---------------------------------------------------------------------------------
                                 Average  Maximum  Maximum  Time of Max    Reported
                                   Depth    Depth      HGL   Occurrence   Max Depth
  Node                 Type       Meters   Meters   Meters  days hr:min      Meters
  ---------------------------------------------------------------------------------
  HS02004478           JUNCTION     0.10     0.64     9.87     0  02:25        0.64
  HS02004479           JUNCTION     0.16     0.77     9.98     0  02:25        0.77
  HS02004480           JUNCTION     0.13     0.74     9.98     0  02:25        0.73
  HS02004770           JUNCTION     0.15     0.60    10.43     0  02:25        0.60
  HS02004777           JUNCTION     0.17     0.61    10.41     0  02:25        0.61
  HS02004785           JUNCTION     0.08     0.42    10.32     0  02:25        0.42
  HS02004788           JUNCTION     0.05     0.31    10.21     0  02:25        0.31
  HS02004792           JUNCTION     0.07     0.62    10.15     0  02:25        0.61
  HS02004799           JUNCTION     0.18     0.85    10.07     0  02:25        0.85
  HS02004802           JUNCTION     0.19     0.75     9.88     0  02:25        0.74
  HS02004807           JUNCTION     0.16     0.71     9.88     0  02:25        0.70
  HS02004817           JUNCTION     0.44     1.04     9.89     0  02:26        1.03
  HS02004824           JUNCTION     0.06     0.48     9.88     0  02:25        0.48
  HS02004830           JUNCTION     0.06     0.41     9.88     0  02:26        0.41
  HS02004837           JUNCTION     0.05     0.29     9.87     0  02:26        0.29
  HS02004842           JUNCTION     0.33     0.61     9.88     0  02:27        0.61
  HS02004848           JUNCTION     0.03     0.26     9.86     0  02:27        0.26
  HS02004852           JUNCTION     0.03     0.28     9.80     0  02:26        0.28
  HS02004856           JUNCTION     0.08     0.33     9.76     0  02:25        0.33
  HS02004862           JUNCTION     0.04     0.29     9.67     0  02:25        0.29
  HS02004870           JUNCTION     0.03     0.25     9.54     0  02:26        0.25
  HS02004876           JUNCTION     0.07     0.33     9.36     0  02:26        0.33
  HS02004881           JUNCTION     0.02     0.12     9.15     0  02:26        0.12
  HS02004901           JUNCTION     0.15     0.61    10.43     0  02:25        0.61
  WS02001211           JUNCTION     0.61     0.78     5.61     0  02:28        0.78
  WS02001212           JUNCTION     0.35     0.54     5.60     0  02:27        0.54
  WS02001213           JUNCTION     0.56     0.83     5.59     0  02:27        0.83
  WS02003059           JUNCTION     0.62     0.90     5.59     0  02:27        0.90
  WS02003060           JUNCTION     0.35     0.65     5.58     0  02:28        0.65
  WS02003066           JUNCTION     0.21     0.43     5.98     0  02:26        0.43
  WS02003067           JUNCTION     0.52     0.86     6.18     0  02:22        0.86
  WS02003069           JUNCTION     0.39     0.73     5.32     0  02:28        0.73
  WS02003072           JUNCTION     0.45     0.77     5.15     0  02:28        0.77
  WS02003073           JUNCTION     0.26     0.49     4.55     0  02:29        0.49
  WS02004138           JUNCTION     0.13     0.14     7.39     0  00:33        0.14
  WS02004139           JUNCTION     0.55     0.71     5.62     0  02:28        0.71
  WS02004401           JUNCTION     0.68     1.59     7.59     0  02:24        1.57
  WS02004402           JUNCTION     0.71     1.55     7.51     0  02:20        1.54
  WS02004403           JUNCTION     0.72     1.50     7.43     0  02:23        1.48
  WS02004404           JUNCTION     0.79     1.52     7.37     0  02:23        1.51
  WS02004405           JUNCTION     0.78     1.48     7.33     0  02:24        1.47
  WS02004406           JUNCTION     0.78     1.39     7.22     0  02:23        1.38
  WS02004407           JUNCTION     0.22     0.70     7.02     0  02:25        0.70
  WS02004409           JUNCTION     0.47     1.24     7.01     0  02:24        1.23
  WS02004410           JUNCTION     0.48     1.17     6.89     0  02:24        1.17
  WS02004411           JUNCTION     0.49     1.11     6.79     0  02:24        1.11
  WS02004412           JUNCTION     0.50     1.04     6.68     0  02:25        1.04
  WS02004413           JUNCTION     0.65     1.10     6.57     0  02:25        1.10
  WS02006109           JUNCTION     0.82     2.46     9.08     0  02:25        2.45
  WS02006110           JUNCTION     0.79     2.16     8.74     0  02:25        2.15
  WS02006111           JUNCTION     0.31     1.42     8.12     0  02:24        1.41
  WS02006112           JUNCTION     0.87     2.02     7.91     0  02:24        2.01
  WS02006113           JUNCTION     0.39     1.54     8.44     0  02:24        1.54
  WS02006115           JUNCTION     0.59     1.64     7.78     0  02:20        1.63
  WS02006116           JUNCTION     0.67     1.65     7.69     0  02:24        1.64
  WS02006228           JUNCTION     0.84     2.72     9.37     0  02:25        2.71
  WS02006229           JUNCTION     0.83     2.85     9.54     0  02:26        2.85
  WS02006230           JUNCTION     0.80     2.65     9.39     0  02:21        2.65
  WS02006231           JUNCTION     0.56     2.19     9.31     0  02:26        2.18
  WS02006232           JUNCTION     0.67     2.18     9.22     0  02:21        2.18
  WS02006234           JUNCTION     0.57     1.96     9.12     0  02:19        1.96
  WS02006235           JUNCTION     0.59     1.93     9.10     0  02:26        1.92
  WS02006238           JUNCTION     0.61     1.93     9.08     0  02:24        1.93
  WS02006239           JUNCTION     0.56     1.79     9.00     0  02:22        1.78
  WS02006240           JUNCTION     0.51     1.66     8.95     0  02:05        1.62
  WS02006242           JUNCTION     0.57     1.55     8.82     0  02:05        1.55
  WS02006243           JUNCTION     0.46     1.46     8.88     0  02:05        1.36
  WS02006245           JUNCTION     0.45     1.39     8.87     0  02:51        1.26
  WS02006247           JUNCTION     0.47     1.31     8.81     0  02:51        1.22
  WS02006248           JUNCTION     0.42     1.10     8.69     0  02:05        1.10
  WS02006249           JUNCTION     0.45     1.09     8.69     0  02:06        1.09
  WS02006251           JUNCTION     0.44     1.80     9.47     0  02:30        1.36
  WS02006252           JUNCTION     0.32     1.50     9.74     0  00:00        0.91
  WS02006253           JUNCTION     0.48     2.41    10.05     0  02:51        1.48
  WS02006256           JUNCTION     0.87     2.35     9.28     0  00:00        2.35
  WS02006280           JUNCTION     0.15     1.32     9.59     0  02:25        1.30
  WS02006284           JUNCTION     0.41     1.35     9.75     0  02:25        1.35
  WS02006287           JUNCTION     0.15     0.93     9.88     0  02:25        0.93
  WSF200               JUNCTION     0.20     0.48     5.72     0  02:26        0.48
  YS02001580           JUNCTION     0.01     0.39     8.93     0  02:26        0.38
  YS02001583           JUNCTION     0.04     0.42     8.92     0  02:27        0.41
  YS02001586           JUNCTION     0.08     0.75     8.92     0  02:27        0.72
  YS02001590           JUNCTION     0.15     1.04     8.90     0  02:27        1.01
  YS02001593           JUNCTION     0.09     1.00     8.87     0  02:27        0.97
  YS02001596           JUNCTION     0.14     1.42     8.84     0  02:27        1.39
  YS02001600           JUNCTION     0.18     1.69     8.82     0  02:27        1.65
  YS02001601           JUNCTION     0.35     1.95     8.79     0  02:27        1.91
  YS02001602           JUNCTION     0.28     1.69     8.59     0  02:27        1.65
  YS02001605           JUNCTION     0.26     1.47     8.37     0  02:27        1.44
  YS02001607           JUNCTION     0.27     1.15     7.99     0  02:26        1.11
  YS02001610           JUNCTION     0.30     1.18     7.98     0  02:26        1.15
  YS02001613           JUNCTION     0.27     1.12     7.96     0  02:26        1.09
  YS02001616           JUNCTION     0.21     1.03     7.94     0  02:26        1.00
  YS02001619           JUNCTION     0.19     0.98     7.91     0  02:26        0.98
  YS02001622           JUNCTION     0.17     0.97     7.88     0  02:25        0.96
  YS02001625           JUNCTION     0.40     1.22     7.82     0  02:26        1.21
  YS02001629           JUNCTION     0.27     1.21     7.76     0  02:26        1.21
  YS02001633           JUNCTION     0.34     1.25     7.70     0  02:25        1.24
  YS02001641           JUNCTION     0.33     1.07     7.51     0  02:25        1.07
  YS02001644           JUNCTION     0.33     1.02     7.45     0  02:25        1.01
  YS02001647           JUNCTION     0.14     0.65     7.26     0  02:25        0.65
  YS02001649           JUNCTION     0.16     0.73     7.12     0  02:26        0.73
  YS02001652           JUNCTION     0.07     0.52     7.12     0  02:26        0.52
  YS02001655           JUNCTION     0.05     0.24     7.09     0  02:26        0.24
  YS02001658           JUNCTION     0.04     0.20     7.34     0  02:25        0.20
  YS02001661           JUNCTION     0.09     0.26     7.67     0  02:25        0.26
  YS02001664           JUNCTION     0.03     0.17     8.10     0  02:25        0.17
  YS02001745           JUNCTION     0.03     0.16     7.68     0  02:20        0.16
  YS02001748           JUNCTION     0.04     0.18     7.26     0  02:20        0.18
  YS02001751           JUNCTION     0.04     0.18     7.06     0  02:20        0.18
  YS02001754           JUNCTION     0.05     0.38     6.99     0  02:25        0.38
  YS02001757           JUNCTION     0.17     0.73     6.99     0  02:26        0.73
  YS02001759           JUNCTION     0.11     0.63     7.00     0  02:26        0.63
  YS02001762           JUNCTION     0.11     0.60     7.00     0  02:26        0.60
  YS02001765           JUNCTION     0.10     0.56     7.01     0  02:25        0.56
  YS02001767           JUNCTION     0.10     0.53     7.02     0  02:26        0.53
  YS02001770           JUNCTION     0.12     0.54     7.04     0  02:25        0.54
  YS02001774           JUNCTION     0.17     0.62     7.04     0  02:25        0.62
  YS02001779           JUNCTION     0.03     0.35     7.04     0  02:25        0.35
  YS02001783           JUNCTION     0.14     0.71     6.85     0  02:26        0.71
  YS02001784           JUNCTION     0.17     0.71     6.77     0  02:26        0.70
  YS02001786           JUNCTION     0.15     0.58     6.61     0  02:26        0.58
  YS02001788           JUNCTION     0.10     0.46     6.44     0  02:26        0.46
  YS02001790           JUNCTION     0.13     0.55     6.19     0  02:26        0.55
  YS02001791           JUNCTION     0.08     0.33     5.80     0  02:31        0.33
  YS02001793           JUNCTION     0.05     0.20     5.04     0  02:26        0.20
  YS02001882           JUNCTION     0.17     0.74     7.46     0  02:26        0.74
  YS02001884           JUNCTION     0.25     0.84     7.46     0  02:26        0.83
  YS02001887           JUNCTION     0.33     0.92     7.46     0  02:26        0.91
  YS02001890           JUNCTION     0.36     0.95     7.45     0  02:26        0.94
  YS02001895           JUNCTION     0.15     0.70     7.45     0  02:26        0.70
  YS02001898           JUNCTION     0.16     0.71     7.45     0  02:25        0.71
  YS02001901           JUNCTION     0.25     0.84     7.44     0  02:25        0.83
  YS02001904           JUNCTION     0.24     0.81     7.44     0  02:25        0.81
  YS02001907           JUNCTION     0.53     1.15     7.44     0  02:26        1.15
  YS02001910           JUNCTION     0.34     0.94     7.45     0  02:26        0.94
  YS02001915           JUNCTION     0.18     0.73     7.45     0  02:26        0.73
  YS02001918           JUNCTION     0.07     0.38     7.45     0  02:26        0.38
  YS02001920           JUNCTION     0.15     0.45     7.46     0  02:26        0.45
  YS02001923           JUNCTION     0.04     0.18     7.44     0  02:26        0.18
  YS02001926           JUNCTION     0.09     0.29     7.74     0  02:25        0.29
  YS02001929           JUNCTION     0.04     0.16     7.86     0  02:25        0.16
  YS02006553           JUNCTION     0.53     1.15     7.43     0  02:26        1.15
  YS02006556           JUNCTION     0.51     1.10     7.42     0  02:26        1.10
  YS02006558           JUNCTION     0.55     1.14     7.41     0  02:26        1.14
  YS02006561           JUNCTION     0.08     0.39     7.05     0  02:25        0.39
  YS02163301           JUNCTION     0.29     1.22     7.74     0  02:26        1.22
  YS02163601           JUNCTION     0.38     1.21     7.61     0  02:26        1.20
  YS02164001           JUNCTION     0.32     1.10     7.55     0  02:25        1.09
  YSB1154              JUNCTION     0.28     0.94     9.99     0  02:24        0.93
  YSB1171              JUNCTION     0.42     1.09     9.99     0  02:25        1.07
  YSB1174              JUNCTION     0.24     0.88     9.99     0  02:24        0.88
  YSB6556              JUNCTION     0.19     0.82     9.99     0  02:24        0.81
  CC-1                 OUTFALL      0.00     0.00     0.00     0  00:00        0.00
  CC-2                 OUTFALL      0.00     0.00     0.00     0  00:00        0.00
  JK-1                 OUTFALL      0.00     0.00     0.00     0  00:00        0.00
  JK-2                 OUTFALL      0.00     0.00     0.00     0  00:00        0.00
  WSC                  OUTFALL      0.26     0.49     1.16     0  02:29        0.49
  CC-storage           STORAGE      0.17     0.80     6.30     0  00:00        0.79
  JK-storage           STORAGE      0.12     3.09     3.89     0  02:40        3.03
  XR-storage           STORAGE      7.70     8.66     6.66     0  06:00        8.66
  
  
  *******************
  Node Inflow Summary
  *******************
  
  -------------------------------------------------------------------------------------------------
                                  Maximum  Maximum                  Lateral       Total        Flow
                                  Lateral    Total  Time of Max      Inflow      Inflow     Balance
                                   Inflow   Inflow   Occurrence      Volume      Volume       Error
  Node                 Type           LPS      LPS  days hr:min    10^6 ltr    10^6 ltr     Percent
  -------------------------------------------------------------------------------------------------
  HS02004478           JUNCTION      0.00  1632.18     0  02:25           0        3.91      -0.010
  HS02004479           JUNCTION      0.00   215.40     0  02:20           0       0.422       0.184
  HS02004480           JUNCTION      0.00  1387.95     0  02:25           0         2.9       0.081
  HS02004770           JUNCTION    392.61   486.18     0  02:25       0.793       0.974       0.335
  HS02004777           JUNCTION      0.03   484.59     0  02:25    0.000648       0.972       0.554
  HS02004785           JUNCTION      0.15   483.66     0  02:25     0.00324       0.971       0.069
  HS02004788           JUNCTION    149.30   630.16     0  02:25       0.338        1.31       0.034
  HS02004792           JUNCTION    470.30  1098.83     0  02:25       0.986        2.29       0.021
  HS02004799           JUNCTION    100.15  1180.97     0  02:25       0.197        2.49       0.091
  HS02004802           JUNCTION      0.00   328.75     0  02:32           0        1.03       0.401
  HS02004807           JUNCTION    126.19   313.43     0  02:19       0.242        1.03       0.422
  HS02004817           JUNCTION      0.60   249.62     0  02:34       0.013        0.81       2.150
  HS02004824           JUNCTION    166.25   234.37     0  02:34       0.416       0.806       0.074
  HS02004830           JUNCTION      0.15   115.60     0  02:18     0.00324       0.399       0.316
  HS02004837           JUNCTION    121.08   146.24     0  02:26       0.366        0.47       0.180
  HS02004842           JUNCTION      0.00   148.90     0  02:26           0       0.178       7.904
  HS02004848           JUNCTION    144.01   281.57     0  02:27        0.35       0.419       0.025
  HS02004852           JUNCTION      0.00   279.22     0  02:27           0       0.323       0.033
  HS02004856           JUNCTION     50.76   320.64     0  02:25      0.0994       0.423       0.354
  HS02004862           JUNCTION     66.10   383.54     0  02:25       0.153       0.574       0.040
  HS02004870           JUNCTION     67.93   445.87     0  02:26       0.132       0.706       0.024
  HS02004876           JUNCTION     67.20   507.60     0  02:26       0.135       0.841       0.087
  HS02004881           JUNCTION     37.41   539.68     0  02:26      0.0698        0.91       0.039
  HS02004901           JUNCTION     94.54    94.54     0  02:25       0.183       0.183       1.014
  WS02001211           JUNCTION      7.35   206.61     0  02:45       0.159        4.02       0.828
  WS02001212           JUNCTION      0.00   213.06     0  02:45           0        3.98       0.370
  WS02001213           JUNCTION      0.00   217.87     0  02:44           0        3.97       0.476
  WS02003059           JUNCTION      0.00   224.63     0  02:44           0        3.96       0.818
  WS02003060           JUNCTION     16.53  1373.59     0  02:28       0.357        10.4       0.146
  WS02003066           JUNCTION      0.00  1165.62     0  02:25           0         6.1       0.029
  WS02003067           JUNCTION      0.00  1165.85     0  02:25           0        6.11       0.076
  WS02003069           JUNCTION      0.32  1373.63     0  02:28     0.00691        10.4       0.156
  WS02003072           JUNCTION      0.00  1373.53     0  02:29           0        10.4       0.209
  WS02003073           JUNCTION      1.82  1375.47     0  02:29      0.0393        10.4       0.218
  WS02004138           JUNCTION      0.00   190.00     0  00:29           0        3.88       0.071
  WS02004139           JUNCTION      0.32   190.32     0  00:33     0.00693        3.89       0.688
  WS02004401           JUNCTION      0.00  1166.34     0  02:24           0        6.22       0.175
  WS02004402           JUNCTION      0.00  1166.52     0  02:24           0        6.21       0.177
  WS02004403           JUNCTION      0.00  1166.76     0  02:24           0         6.2       0.173
  WS02004404           JUNCTION      0.16  1167.06     0  02:24      0.0035        6.19       0.150
  WS02004405           JUNCTION      0.04  1167.28     0  02:24    0.000823        6.18       0.203
  WS02004406           JUNCTION      0.00  1167.29     0  02:24           0        6.17       0.355
  WS02004407           JUNCTION      0.00  1167.07     0  02:24           0        6.15       0.028
  WS02004409           JUNCTION      0.00  1166.04     0  02:24           0        6.15       0.063
  WS02004410           JUNCTION      0.00  1166.34     0  02:24           0        6.14       0.092
  WS02004411           JUNCTION      0.00  1165.95     0  02:24           0        6.14       0.110
  WS02004412           JUNCTION      0.00  1165.82     0  02:25           0        6.13       0.141
  WS02004413           JUNCTION      0.00  1165.84     0  02:25           0        6.12       0.253
  WS02006109           JUNCTION      1.23  1094.04     0  02:27      0.0266        6.12       0.185
  WS02006110           JUNCTION      0.00  1094.06     0  02:27           0        6.11       0.134
  WS02006111           JUNCTION      0.00  1094.22     0  02:27           0         6.1       0.018
  WS02006112           JUNCTION     77.46  1166.05     0  02:25       0.151        6.25       0.336
  WS02006113           JUNCTION      0.00  1094.04     0  02:27           0         6.1       0.038
  WS02006115           JUNCTION      0.00  1165.96     0  02:24           0        6.23       0.118
  WS02006116           JUNCTION      0.00  1166.23     0  02:24           0        6.22       0.024
  WS02006228           JUNCTION      0.00  1092.78     0  02:27           0         6.1       0.064
  WS02006229           JUNCTION      0.00  1620.37     0  02:26           0        6.56       0.105
  WS02006230           JUNCTION     10.28   537.27     0  02:26       0.222        3.11       0.250
  WS02006231           JUNCTION      0.00   454.98     0  03:00           0        2.87      -0.033
  WS02006232           JUNCTION      0.00   453.56     0  03:00           0        2.88       0.194
  WS02006234           JUNCTION      0.00   452.97     0  02:26           0        2.87      -0.086
  WS02006235           JUNCTION      0.00   448.17     0  03:00           0        2.96       0.162
  WS02006238           JUNCTION      0.00   415.20     0  02:25           0        2.64      -0.239
  WS02006239           JUNCTION      0.00   414.89     0  02:24           0        2.63      -0.343
  WS02006240           JUNCTION      0.00   415.32     0  02:05           0        2.62      -0.031
  WS02006242           JUNCTION      0.00   429.23     0  02:05           0        2.62      -0.064
  WS02006243           JUNCTION      0.00   444.76     0  02:04           0        2.48      -0.300
  WS02006245           JUNCTION      0.00   463.15     0  02:03           0         2.5       0.470
  WS02006247           JUNCTION      0.00   466.17     0  02:04           0         2.5       0.013
  WS02006248           JUNCTION      0.00   483.06     0  02:02           0        2.61      -0.034
  WS02006249           JUNCTION      0.00   757.88     0  02:20           0        3.31       0.246
  WS02006251           JUNCTION      0.08   759.49     0  02:20     0.00166        3.36       0.016
  WS02006252           JUNCTION      0.00   400.00     0  00:00           0        2.39      -0.052
  WS02006253           JUNCTION     10.08   546.78     0  02:26       0.017       0.967       0.105
  WS02006256           JUNCTION      0.00   300.00     0  00:00           0       0.824      -0.157
  WS02006280           JUNCTION      0.00  1618.45     0  02:26           0        3.91       0.003
  WS02006284           JUNCTION      0.10  1617.95     0  02:26     0.00207        3.91       0.016
  WS02006287           JUNCTION      0.00  1620.80     0  02:25           0        3.91       0.023
  WSF200               JUNCTION      0.00  1165.51     0  02:25           0         6.1       0.013
  YS02001580           JUNCTION      0.00    28.58     0  02:25           0       0.003       1.979
  YS02001583           JUNCTION      0.00    54.87     0  02:25           0      0.0104      -3.423
  YS02001586           JUNCTION    189.91   197.17     0  02:28       0.513       0.521       0.146
  YS02001590           JUNCTION      0.00   206.10     0  02:31           0       0.513      -0.001
  YS02001593           JUNCTION      0.00   205.99     0  02:31           0       0.513       0.009
  YS02001596           JUNCTION      0.00   206.00     0  02:32           0       0.513      -0.021
  YS02001600           JUNCTION      0.00   206.06     0  02:32           0       0.513       0.016
  YS02001601           JUNCTION    350.69   493.21     0  02:27       0.789         1.3       0.101
  YS02001602           JUNCTION      0.00   493.13     0  02:27           0         1.3       0.064
  YS02001605           JUNCTION      0.00   493.28     0  02:27           0         1.3       0.092
  YS02001607           JUNCTION      0.00   493.51     0  02:27           0         1.3       0.180
  YS02001610           JUNCTION      0.00   496.12     0  02:27           0         1.3       0.210
  YS02001613           JUNCTION      0.00   497.70     0  02:27           0        1.29       0.156
  YS02001616           JUNCTION      0.00   499.10     0  02:27           0        1.29       0.065
  YS02001619           JUNCTION    327.16   810.23     0  02:26       0.794        2.09       0.018
  YS02001622           JUNCTION      0.00   821.95     0  02:26           0        2.08       0.032
  YS02001625           JUNCTION      0.00   812.04     0  02:26           0        2.08       0.496
  YS02001629           JUNCTION      0.00   812.33     0  02:27           0        2.07       0.046
  YS02001633           JUNCTION    257.99  1045.19     0  02:27       0.554        2.63       0.155
  YS02001641           JUNCTION      0.00  1045.06     0  02:27           0        2.62       0.122
  YS02001644           JUNCTION    228.14  1251.17     0  02:26       0.475        3.09       0.125
  YS02001647           JUNCTION      0.00  1252.29     0  02:26           0        3.08       0.018
  YS02001649           JUNCTION      0.00  1446.23     0  02:26           0        3.49       0.022
  YS02001652           JUNCTION      0.00   205.43     0  02:24           0       0.409      -0.184
  YS02001655           JUNCTION      0.15   206.98     0  02:25     0.00332        0.41       0.130
  YS02001658           JUNCTION      0.00   206.94     0  02:25           0       0.407      -0.000
  YS02001661           JUNCTION      0.00   207.13     0  02:25           0       0.407       0.088
  YS02001664           JUNCTION    207.23   207.23     0  02:25       0.407       0.407      -0.005
  YS02001745           JUNCTION    140.85   140.85     0  02:20       0.267       0.267       0.000
  YS02001748           JUNCTION      0.04   141.01     0  02:20    0.000972       0.268       0.004
  YS02001751           JUNCTION      0.01   141.40     0  02:20    0.000238       0.268       0.220
  YS02001754           JUNCTION      0.26   143.37     0  02:20     0.00562       0.273      -0.264
  YS02001757           JUNCTION      0.00  2013.79     0  02:25           0        4.71      -0.028
  YS02001759           JUNCTION    191.46   451.15     0  02:24       0.362       0.944       0.002
  YS02001762           JUNCTION      0.00   271.51     0  02:25           0       0.582       0.032
  YS02001765           JUNCTION      0.00   271.54     0  02:25           0       0.582       0.028
  YS02001767           JUNCTION      0.54   274.35     0  02:24      0.0116       0.582       0.051
  YS02001770           JUNCTION    282.76   282.76     0  02:25       0.572       0.591       0.020
  YS02001774           JUNCTION      0.00    23.33     0  02:20           0      0.0261       4.888
  YS02001779           JUNCTION      0.01     8.87     0  02:19    0.000108     0.00559       0.109
  YS02001783           JUNCTION      0.00   777.14     0  02:26           0        1.78       0.020
  YS02001784           JUNCTION      1.06   778.03     0  02:26      0.0229         1.8       0.034
  YS02001786           JUNCTION      0.06   777.98     0  02:26     0.00122         1.8       0.041
  YS02001788           JUNCTION      0.07   778.00     0  02:26     0.00153         1.8       0.020
  YS02001790           JUNCTION      0.15   778.11     0  02:27     0.00335        1.81       0.030
  YS02001791           JUNCTION      0.00   806.57     0  02:26           0        1.81       0.007
  YS02001793           JUNCTION      0.00   778.82     0  02:27           0        1.81       0.001
  YS02001882           JUNCTION      0.00    12.72     0  02:22           0     0.00986       7.443
  YS02001884           JUNCTION      0.00    31.40     0  02:20           0      0.0387       7.303
  YS02001887           JUNCTION    219.15   219.36     0  02:21       0.398       0.424       1.108
  YS02001890           JUNCTION      0.00   208.42     0  02:21           0        0.39       1.373
  YS02001895           JUNCTION      0.00   209.54     0  02:21           0       0.384       0.369
  YS02001898           JUNCTION      0.00   205.09     0  02:21           0       0.383       0.172
  YS02001901           JUNCTION      0.00   189.68     0  02:21           0       0.385       0.864
  YS02001904           JUNCTION      0.00   199.56     0  02:31           0       0.389       0.791
  YS02001907           JUNCTION      0.00   568.51     0  02:30           0        1.27       1.452
  YS02001910           JUNCTION      0.00   364.92     0  02:27           0       0.884       0.833
  YS02001915           JUNCTION    253.77   362.82     0  02:24        0.54       0.886       0.208
  YS02001918           JUNCTION      0.00   127.98     0  02:27           0       0.346       0.103
  YS02001920           JUNCTION      2.87   125.08     0  02:25       0.062       0.347       0.320
  YS02001923           JUNCTION      0.04   122.65     0  02:25    0.000814       0.285       0.014
  YS02001926           JUNCTION      0.05   123.53     0  02:25     0.00113       0.285       0.146
  YS02001929           JUNCTION    123.73   123.73     0  02:25       0.284       0.284       0.005
  YS02006553           JUNCTION      0.00   567.49     0  02:30           0        1.25       0.956
  YS02006556           JUNCTION      0.00   568.43     0  02:30           0        1.26       0.671
  YS02006558           JUNCTION    282.02   777.05     0  02:26        0.57        1.81       0.194
  YS02006561           JUNCTION      0.00   777.10     0  02:26           0        1.78       0.002
  YS02163301           JUNCTION      0.00   816.04     0  02:27           0        2.07       0.093
  YS02163601           JUNCTION      0.11  1045.07     0  02:26     0.00238        2.62       0.209
  YS02164001           JUNCTION      0.00  1045.22     0  02:26           0        2.62       0.104
  YSB1154              JUNCTION    117.05   117.05     0  02:25       0.236       0.237       0.608
  YSB1171              JUNCTION      0.00   215.93     0  02:20           0       0.421       1.517
  YSB1174              JUNCTION    101.11   101.11     0  02:20       0.177       0.178       0.727
  YSB6556              JUNCTION      0.00   117.25     0  02:25           0       0.238       0.514
  CC-1                 OUTFALL       0.00   683.00     0  00:10           0         3.9       0.000
  CC-2                 OUTFALL       0.00   683.00     0  00:10           0        1.76       0.000
  JK-1                 OUTFALL       0.00  1000.00     0  00:00           0        1.21       0.000
  JK-2                 OUTFALL       0.00  1000.00     0  00:00           0        1.08       0.000
  WSC                  OUTFALL       0.00  1375.97     0  02:29           0        10.3       0.000
  CC-storage           STORAGE       0.00  2024.46     0  02:26           0        6.94     -13.673
  JK-storage           STORAGE       0.00   803.04     0  02:30           0        1.96     -37.116
  XR-storage           STORAGE     200.00   200.00     0  00:00        4.32        4.92       0.001
  
  
  **********************
  Node Surcharge Summary
  **********************
  
  Surcharging occurs when water rises above the top of the highest conduit.
  ---------------------------------------------------------------------
                                               Max. Height   Min. Depth
                                   Hours       Above Crown    Below Rim
  Node                 Type      Surcharged         Meters       Meters
  ---------------------------------------------------------------------
  HS02004480           JUNCTION        0.05          0.027        1.073
  HS02004799           JUNCTION        0.20          0.154        0.906
  HS02004802           JUNCTION        0.07          0.036        1.174
  HS02004807           JUNCTION        0.01          0.011        1.209
  HS02004817           JUNCTION        0.54          0.340        1.400
  WS02004401           JUNCTION        1.03          0.590        1.070
  WS02004402           JUNCTION        1.07          0.548        1.192
  WS02004403           JUNCTION        1.07          0.497        1.533
  WS02004404           JUNCTION        1.11          0.519        2.261
  WS02004405           JUNCTION        1.10          0.475        2.325
  WS02004406           JUNCTION        1.10          0.392        2.058
  WS02004409           JUNCTION        0.43          0.235        2.125
  WS02004410           JUNCTION        0.38          0.169        2.371
  WS02004411           JUNCTION        0.31          0.105        2.425
  WS02004412           JUNCTION        0.23          0.035        2.275
  WS02004413           JUNCTION        0.60          0.102        2.098
  WS02006109           JUNCTION        1.44          1.638        0.182
  WS02006110           JUNCTION        1.14          1.246        0.604
  WS02006111           JUNCTION        0.55          0.607        1.263
  WS02006112           JUNCTION        1.20          1.023        0.657
  WS02006113           JUNCTION        0.58          0.744        1.186
  WS02006115           JUNCTION        0.84          0.628        1.622
  WS02006116           JUNCTION        0.89          0.591        1.699
  WS02006228           JUNCTION        1.41          1.891        0.309
  WS02006229           JUNCTION        0.34          0.670        0.400
  WS02006230           JUNCTION        1.11          1.570        0.000
  WS02006231           JUNCTION        1.12          1.478        0.052
  WS02006232           JUNCTION        1.43          1.480        0.000
  WS02006234           JUNCTION        1.14          1.240        0.000
  WS02006235           JUNCTION        1.25          1.222        0.068
  WS02006238           JUNCTION        1.33          1.213        0.217
  WS02006239           JUNCTION        1.23          1.047        0.243
  WS02006240           JUNCTION        1.23          0.946        0.444
  WS02006242           JUNCTION        1.40          0.820        0.000
  WS02006243           JUNCTION        1.24          0.754        0.016
  WS02006245           JUNCTION        1.21          0.675        0.175
  WS02006247           JUNCTION        1.26          0.600        0.160
  WS02006248           JUNCTION        1.16          0.380        0.000
  WS02006249           JUNCTION        1.22          0.390        0.000
  WS02006251           JUNCTION        0.92          0.774        0.406
  WS02006252           JUNCTION        1.58          1.100        0.000
  WS02006253           JUNCTION        0.95          1.371        1.109
  WS02006256           JUNCTION        5.99          2.050        0.000
  WS02006280           JUNCTION        0.22          0.268        0.512
  WS02006284           JUNCTION        0.12          0.067        0.733
  YS02001586           JUNCTION        0.07          0.125        0.385
  YS02001590           JUNCTION        0.17          0.387        0.363
  YS02001593           JUNCTION        0.17          0.384        0.456
  YS02001596           JUNCTION        0.30          0.692        0.378
  YS02001600           JUNCTION        0.41          1.006        0.184
  YS02001601           JUNCTION        0.71          1.328        0.112
  YS02001602           JUNCTION        0.60          1.090        0.180
  YS02001605           JUNCTION        0.56          0.868        0.312
  YS02001607           JUNCTION        0.11          0.146        0.534
  YS02001610           JUNCTION        0.14          0.179        0.501
  YS02001613           JUNCTION        0.10          0.117        0.583
  YS02001616           JUNCTION        0.01          0.030        0.580
  YS02001625           JUNCTION        0.24          0.218        0.562
  YS02001633           JUNCTION        0.25          0.226        0.834
  YS02001641           JUNCTION        0.14          0.072        1.028
  YS02001644           JUNCTION        0.06          0.018        0.902
  YS02001907           JUNCTION        0.25          0.141        0.809
  YS02006553           JUNCTION        0.27          0.146        1.044
  YS02006556           JUNCTION        0.14          0.064        1.286
  YS02006558           JUNCTION        0.12          0.040        1.360
  YS02163301           JUNCTION        0.23          0.222        0.808
  YS02163601           JUNCTION        0.28          0.212        0.868
  YS02164001           JUNCTION        0.15          0.096        1.004
  YSB1154              JUNCTION        0.29          0.236        1.164
  YSB1171              JUNCTION        0.29          0.237        0.863
  YSB1174              JUNCTION        0.23          0.180        1.070
  YSB6556              JUNCTION        0.17          0.118        0.982
  
  
  *********************
  Node Flooding Summary
  *********************
  
  Flooding refers to all water that overflows a node, whether it ponds or not.
  --------------------------------------------------------------------------
                                                             Total   Maximum
                                 Maximum   Time of Max       Flood    Ponded
                        Hours       Rate    Occurrence      Volume     Depth
  Node                 Flooded       LPS   days hr:min    10^6 ltr    Meters
  --------------------------------------------------------------------------
  WS02006230              0.13     84.35      0  02:26       0.028     0.000
  WS02006232              0.02      0.40      0  02:26       0.000     0.000
  WS02006234              0.22    128.44      0  02:26       0.081     0.000
  WS02006242              0.31    137.08      0  02:25       0.127     0.000
  WS02006248              0.54    340.85      0  02:21       0.498     0.000
  WS02006249              0.94    693.40      0  02:20       1.076     0.000
  WS02006252              0.01    249.24      0  02:00       0.001     0.000
  WS02006256              0.54    293.19      0  00:00       0.346     0.000
  
  
  **********************
  Storage Volume Summary
  **********************
  
  --------------------------------------------------------------------------------------------------
                         Average     Avg  Evap Exfil       Maximum     Max    Time of Max    Maximum
                          Volume    Pcnt  Pcnt  Pcnt        Volume    Pcnt     Occurrence    Outflow
  Storage Unit           1000 m3    Full  Loss  Loss       1000 m3    Full    days hr:min        LPS
  --------------------------------------------------------------------------------------------------
  CC-storage               0.467       7     0     0         2.230      35       0  00:00    1766.00
  JK-storage               0.006       2     0     0         0.155      53       0  02:40    2300.00
  XR-storage               0.923      64     0     0         1.039      72       0  06:00     190.00
  
  
  ***********************
  Outfall Loading Summary
  ***********************
  
  -----------------------------------------------------------
                         Flow       Avg       Max       Total
                         Freq      Flow      Flow      Volume
  Outfall Node           Pcnt       LPS       LPS    10^6 ltr
  -----------------------------------------------------------
  CC-1                  71.06    329.14    683.00       3.895
  CC-2                  32.33    367.38    683.00       1.757
  JK-1                  61.41    101.43   1000.00       1.210
  JK-2                  39.89    141.60   1000.00       1.080
  WSC                   99.96    504.32   1375.97      10.348
  -----------------------------------------------------------
  System                60.93   1443.88   3947.64      18.290
  
  
  ********************
  Link Flow Summary
  ********************
  
  -----------------------------------------------------------------------------
                                 Maximum  Time of Max   Maximum    Max/    Max/
                                  |Flow|   Occurrence   |Veloc|    Full    Full
  Link                 Type          LPS  days hr:min     m/sec    Flow   Depth
  -----------------------------------------------------------------------------
  1                    CONDUIT   1375.97     0  02:29      3.62    0.48    0.49
  HS02004478WS02006287 CONDUIT   1620.80     0  02:25      2.58    0.45    0.84
  HS02004479HS02004480 CONDUIT    220.39     0  02:24      0.33    0.21    1.00
  HS02004480HS02004478 CONDUIT   1385.99     0  02:25      2.20    5.84    0.94
  HS02004770HS02004777 CONDUIT    484.56     0  02:25      0.80    0.89    0.86
  HS02004777HS02004785 CONDUIT    483.51     0  02:25      0.94    0.59    0.74
  HS02004785HS02004788 CONDUIT    483.78     0  02:25      1.33    3.65    0.52
  HS02004788HS02004792 CONDUIT    629.09     0  02:25      1.49    0.42    0.66
  HS02004792HS02004799 CONDUIT   1085.71     0  02:25      1.70    0.66    0.94
  HS02004799HS02004480 CONDUIT   1181.01     0  02:25      1.69    1.49    1.00
  HS02004802HS02004478 CONDUIT    344.31     0  02:33      0.69    0.30    0.96
  HS02004807HS02004802 CONDUIT    328.75     0  02:32      0.62    0.63    1.00
  HS02004817HS02004807 CONDUIT    249.83     0  02:34      0.41    0.15    1.00
  HS02004817HS02004824 CONDUIT    249.02     0  02:34      0.51    0.11    0.84
  HS02004824HS02004830 CONDUIT    114.91     0  02:35      0.62    0.15    0.63
  HS02004830HS02004837 CONDUIT    115.45     0  02:18      0.72    0.11    0.50
  HS02004837HS02004842 CONDUIT    148.90     0  02:26      0.41    0.09    0.64
  HS02004842HS02004848 CONDUIT    148.43     0  02:27      0.34    0.09    0.62
  HS02004848HS02004852 CONDUIT    279.22     0  02:27      1.03    0.31    0.39
  HS02004852HS02004856 CONDUIT    278.69     0  02:27      0.91    0.32    0.44
  HS02004856HS02004862 CONDUIT    321.16     0  02:26      1.18    0.32    0.39
  HS02004862HS02004870 CONDUIT    385.04     0  02:26      1.43    0.42    0.39
  HS02004870HS02004876 CONDUIT    446.32     0  02:26      1.55    0.30    0.41
  HS02004876HS02004881 CONDUIT    508.32     0  02:26      2.27    5.41    0.32
  HS02004881HS02006253 CONDUIT    539.61     0  02:26      2.08    0.11    0.59
  HS02004901HS02004770 CONDUIT     95.05     0  02:25      0.16    0.36    0.86
  WS02001211WS02001212 CONDUIT    213.06     0  02:45      0.54    0.16    0.66
  WS02001212WS02001213 CONDUIT    217.87     0  02:44      1.04    0.34    0.52
  WS02001213WS02003059 CONDUIT    224.63     0  02:44      0.47    0.37    0.86
  WS02003059WS02003060 CONDUIT    231.35     0  02:43      0.66    0.15    0.77
  WS02003060WS02003069 CONDUIT   1373.31     0  02:28      2.04    0.54    0.57
  WS02003066WSF200     CONDUIT   1165.51     0  02:25      3.22    0.20    0.36
  WS02003067WS02003066 CONDUIT   1165.62     0  02:25      1.88    0.37    0.54
  WS02003069WS02003072 CONDUIT   1373.53     0  02:29      1.84    0.66    0.63
  WS02003072WS02003073 CONDUIT   1373.65     0  02:29      1.98    2.97    0.59
  WS02004138WS02004139 CONDUIT    190.00     0  00:33      2.17    0.04    0.40
  WS02004139WS02001211 CONDUIT    199.26     0  02:45      0.54    0.25    0.58
  WS02004401WS02004402 CONDUIT   1166.52     0  02:24      1.49    1.40    1.00
  WS02004402WS02004403 CONDUIT   1166.76     0  02:24      1.49    1.68    1.00
  WS02004403WS02004404 CONDUIT   1166.90     0  02:24      1.49    0.84    1.00
  WS02004404WS02004405 CONDUIT   1167.24     0  02:24      1.49   11.44    1.00
  WS02004405WS02004406 CONDUIT   1167.29     0  02:24      1.49    2.30    1.00
  WS02004406WS02004407 CONDUIT   1167.07     0  02:24      1.72    0.52    0.85
  WS02004407WS02004409 CONDUIT   1166.04     0  02:24      1.81    0.41    0.85
  WS02004409WS02004410 CONDUIT   1166.34     0  02:24      1.49    1.51    1.00
  WS02004410WS02004411 CONDUIT   1165.95     0  02:24      1.48    1.59    1.00
  WS02004411WS02004412 CONDUIT   1165.82     0  02:25      1.48    1.66    1.00
  WS02004412WS02004413 CONDUIT   1165.84     0  02:25      1.48    0.78    1.00
  WS02004413WS02003067 CONDUIT   1165.85     0  02:25      1.85    0.50    0.75
  WS02006109WS02006110 CONDUIT   1094.06     0  02:27      2.18    2.10    1.00
  WS02006110WS02006113 CONDUIT   1094.04     0  02:27      2.18    1.00    1.00
  WS02006111WS02006112 CONDUIT   1094.37     0  02:27      2.18    0.52    1.00
  WS02006112WS02006115 CONDUIT   1165.96     0  02:24      1.48    0.69    1.00
  WS02006113WS02006111 CONDUIT   1094.22     0  02:27      2.72    1.31    1.00
  WS02006115WS02006116 CONDUIT   1166.23     0  02:24      1.48    1.50    1.00
  WS02006116WS02004401 CONDUIT   1166.34     0  02:24      1.49    1.61    1.00
  WS02006228WS02006109 CONDUIT   1092.81     0  02:27      2.17    4.77    1.00
  WS02006229WS02006228 CONDUIT   1092.78     0  02:27      2.17    3.62    1.00
  WS02006230WS02006229 CONDUIT    527.00     0  02:26      1.37   11.73    1.00
  WS02006231WS02006230 CONDUIT    456.00     0  03:00      1.38    6.92    1.00
  WS02006232WS02006231 CONDUIT    454.98     0  03:00      1.18    0.95    1.00
  WS02006234WS02006232 CONDUIT    453.56     0  03:00      1.39    0.92    1.00
  WS02006235WS02006234 CONDUIT    449.90     0  03:00      1.20    4.75    1.00
  WS02006238WS02006235 CONDUIT    415.20     0  02:25      1.45    0.93    1.00
  WS02006239WS02006238 CONDUIT    414.89     0  02:24      1.09    1.33    1.00
  WS02006240WS02006239 CONDUIT    414.62     0  02:26      1.25    1.30    1.00
  WS02006242WS02006240 CONDUIT    415.32     0  02:05      1.15    1.65    1.00
  WS02006243WS02006242 CONDUIT    429.23     0  02:05      1.33    0.92    1.00
  WS02006245WS02006243 CONDUIT    444.76     0  02:04      1.43    1.32    1.00
  WS02006247WS02006245 CONDUIT    463.15     0  02:03      1.47    3.67    1.00
  WS02006248WS02006247 CONDUIT    466.17     0  02:04      1.41    1.01    1.00
  WS02006249WS02006248 CONDUIT    483.06     0  02:02      1.42    2.65    1.00
  WS02006251WS02006249 CONDUIT    757.88     0  02:20      1.97    2.19    1.00
  WS02006252WS02006251 CONDUIT    412.23     0  02:51      3.84    1.51    1.00
  WS02006253WS02006251 CONDUIT    547.04     0  02:26      1.42    1.64    1.00
  WS02006256WS02006235 CONDUIT    288.93     0  00:00      4.23    3.06    1.00
  WS02006280WS02006229 CONDUIT   1620.37     0  02:26      4.06    0.35    1.00
  WS02006284WS02006280 CONDUIT   1618.45     0  02:26      2.96    0.68    1.00
  WS02006287WS02006284 CONDUIT   1617.85     0  02:26      2.72    0.75    0.96
  WSF200WS02003060     CONDUIT   1165.37     0  02:24      2.29    0.26    0.47
  YS02001580YS02001583 CONDUIT     28.58     0  02:25      0.43    0.11    0.66
  YS02001583YS02001586 CONDUIT     54.87     0  02:25      0.27    0.08    0.82
  YS02001586YS02001590 CONDUIT    206.10     0  02:31      1.25    0.36    1.00
  YS02001590YS02001593 CONDUIT    205.99     0  02:31      1.00    1.29    1.00
  YS02001593YS02001596 CONDUIT    206.00     0  02:32      1.65    0.33    1.00
  YS02001596YS02001600 CONDUIT    206.06     0  02:32      1.15    0.40    1.00
  YS02001600YS02001601 CONDUIT    206.19     0  02:32      0.73    0.36    1.00
  YS02001601YS02001602 CONDUIT    493.13     0  02:27      1.74    1.78    1.00
  YS02001602YS02001605 CONDUIT    493.28     0  02:27      1.74   10.44    1.00
  YS02001605YS02001607 CONDUIT    493.51     0  02:27      1.75    2.71    1.00
  YS02001607YS02001610 CONDUIT    496.12     0  02:27      0.63    0.47    1.00
  YS02001610YS02001613 CONDUIT    497.70     0  02:27      0.63    0.57    1.00
  YS02001613YS02001616 CONDUIT    499.10     0  02:27      0.64    0.43    1.00
  YS02001616YS02001619 CONDUIT    506.89     0  02:28      0.69    0.88    0.99
  YS02001619YS02001622 CONDUIT    821.95     0  02:26      1.21    1.21    0.97
  YS02001622YS02001625 CONDUIT    812.04     0  02:26      1.04    0.43    0.99
  YS02001625YS02001629 CONDUIT    812.33     0  02:27      1.08    0.39    0.92
  YS02001629YS02163301 CONDUIT    816.04     0  02:27      1.04    1.00    1.00
  YS02001633YS02163601 CONDUIT   1044.96     0  02:26      1.33    1.10    1.00
  YS02001641YS02001644 CONDUIT   1045.36     0  02:27      1.33    3.38    1.00
  YS02001644YS02001647 CONDUIT   1252.29     0  02:26      1.81    0.74    0.82
  YS02001647YS02001649 CONDUIT   1252.55     0  02:26      2.19    0.66    0.69
  YS02001649YS02001757 CONDUIT   1449.82     0  02:27      2.38    0.88    0.73
  YS02001652YS02001649 CONDUIT    203.86     0  02:24      0.69    0.10    0.63
  YS02001655YS02001652 CONDUIT    205.43     0  02:24      1.28    0.10    0.37
  YS02001658YS02001655 CONDUIT    206.83     0  02:25      1.76    0.09    0.22
  YS02001661YS02001658 CONDUIT    206.94     0  02:25      1.90    0.08    0.20
  YS02001664YS02001661 CONDUIT    207.13     0  02:25      1.64    0.06    0.22
  YS02001745YS02001748 CONDUIT    140.97     0  02:20      1.77    0.05    0.16
  YS02001748YS02001751 CONDUIT    141.39     0  02:20      1.48    0.07    0.18
  YS02001751YS02001754 CONDUIT    143.11     0  02:20      1.42    0.07    0.25
  YS02001754YS02001757 CONDUIT    139.76     0  02:25      0.39    0.06    0.56
  YS02001757CaochengTiaoxuchi CONDUIT   2024.46     0  02:26      6.70    0.88    0.59
  YS02001759YS02001757 CONDUIT    445.85     0  02:25      0.79    0.32    0.68
  YS02001762YS02001759 CONDUIT    274.21     0  02:27      0.56    0.32    0.62
  YS02001765YS02001762 CONDUIT    271.51     0  02:25      0.61    0.25    0.58
  YS02001767YS02001765 CONDUIT    271.54     0  02:25      0.69    0.34    0.54
  YS02001770YS02001767 CONDUIT    273.82     0  02:24      0.71    1.08    0.54
  YS02001774YS02001770 CONDUIT     23.33     0  02:20      0.14    0.01    0.57
  YS02001779YS02001774 CONDUIT      8.87     0  02:19      0.04    0.00    0.49
  YS02001783YS02001784 CONDUIT    776.97     0  02:26      1.65    1.07    0.88
  YS02001784YS02001785 CONDUIT    777.93     0  02:26      1.79    1.81    0.80
  YS02001786YS02001788 CONDUIT    777.93     0  02:26      2.24    1.50    0.65
  YS02001788YS02001790 CONDUIT    777.96     0  02:27      2.33    0.57    0.63
  YS02001790YS02001791 CONDUIT    806.57     0  02:26      2.86    0.88    0.55
  YS02001791YS02001793 CONDUIT    778.82     0  02:27      5.75    0.33    0.33
  YS02001793JiankangQianchi CONDUIT    803.04     0  02:30     18.48    0.06    0.58
  YS02001882YS02001884 CONDUIT     12.72     0  02:22      0.05    0.01    0.76
  YS02001884YS02001887 CONDUIT     31.40     0  02:20      0.05    0.04    0.85
  YS02001887YS02001890 CONDUIT    208.42     0  02:21      0.30    0.36    0.91
  YS02001890YS02001895 CONDUIT    209.54     0  02:21      0.33    0.10    0.82
  YS02001895YS02001898 CONDUIT    205.09     0  02:21      0.40    0.36    0.69
  YS02001898YS02001901 CONDUIT    189.68     0  02:21      0.33    0.12    0.77
  YS02001901YS02001904 CONDUIT    199.56     0  02:31      0.33    0.31    0.82
  YS02001904YS02001907 CONDUIT    212.26     0  02:31      0.30    0.07    0.91
  YS02001907YS02006553 CONDUIT    567.49     0  02:30      0.63    0.67    1.00
  YS02001910YS02001907 CONDUIT    365.11     0  02:28      0.49    0.21    0.97
  YS02001915YS02001910 CONDUIT    364.92     0  02:27      0.55    0.18    0.83
  YS02001918YS02001915 CONDUIT    142.62     0  02:31      0.44    0.08    0.56
  YS02001920YS02001918 CONDUIT    127.98     0  02:27      0.62    0.12    0.42
  YS02001923YS02001920 CONDUIT    122.21     0  02:25      0.71    0.05    0.32
  YS02001926YS02001923 CONDUIT    122.61     0  02:25      0.83    0.18    0.24
  YS02001929YS02001926 CONDUIT    123.48     0  02:25      0.91    0.06    0.23
  YS02006553YS02006556 CONDUIT    568.43     0  02:30      0.72    0.49    1.00
  YS02006556YS02006558 CONDUIT    571.98     0  02:30      0.73    0.45    1.00
  YS02006558YS02006561 CONDUIT    777.10     0  02:26      3.14    1.72    0.82
  YS02006561YS02001783 CONDUIT    777.14     0  02:26      2.12    0.40    0.69
  YS02163301YS02001633 CONDUIT    817.00     0  02:27      1.04    0.77    1.00
  YS02163601YS02164001 CONDUIT   1045.22     0  02:26      1.33    0.93    1.00
  YS02164001YS02001641 CONDUIT   1045.06     0  02:27      1.33    1.43    1.00
  YSB1154YSB6556       CONDUIT    117.25     0  02:25      0.30    0.21    1.00
  YSB1171HS02004479    CONDUIT    215.40     0  02:20      0.54    0.14    0.98
  YSB1174YSB1171       CONDUIT    101.34     0  02:20      0.26    0.16    1.00
  YSB6556YSB1171       CONDUIT    118.18     0  02:24      0.31    0.12    1.00
  CC-R1                PUMP       683.00     0  00:10              1.00
  CC-R2                PUMP       683.00     0  00:10              1.00
  CC-S1                PUMP       200.00     0  00:00              1.00
  CC-S2                PUMP       200.00     0  00:00              1.00
  JK-R1                PUMP      1000.00     0  00:00              1.00
  JK-R2                PUMP      1000.00     0  00:00              1.00
  JK-S                 PUMP       300.00     0  00:00              1.00
  XR-1                 PUMP        95.00     0  00:10              1.00
  XR-2                 PUMP        95.00     0  00:29              1.00
  XR-3                 PUMP         0.00     0  00:00              0.00
  XR-4                 PUMP         0.00     0  00:00              0.00
  
  
  ***************************
  Flow Classification Summary
  ***************************
  
  -------------------------------------------------------------------------------------
                      Adjusted    ---------- Fraction of Time in Flow Class ---------- 
                       /Actual         Up    Down  Sub   Sup   Up    Down  Norm  Inlet 
  Conduit               Length    Dry  Dry   Dry   Crit  Crit  Crit  Crit  Ltd   Ctrl  
  -------------------------------------------------------------------------------------
  1                       1.00   0.00  0.00  0.00  0.00  1.00  0.00  0.00  0.42  0.00
  HS02004478WS02006287    1.00   0.22  0.00  0.00  0.56  0.22  0.00  0.00  0.54  0.00
  HS02004479HS02004480    1.00   0.05  0.00  0.00  0.95  0.00  0.00  0.00  0.17  0.00
  HS02004480HS02004478    1.00   0.19  0.00  0.00  0.50  0.00  0.00  0.31  0.00  0.00
  HS02004770HS02004777    1.00   0.00  0.18  0.00  0.82  0.00  0.00  0.00  0.06  0.00
  HS02004777HS02004785    1.00   0.00  0.00  0.00  1.00  0.00  0.00  0.00  0.20  0.00
  HS02004785HS02004788    1.00   0.00  0.00  0.00  1.00  0.00  0.00  0.00  0.00  0.00
  HS02004788HS02004792    1.00   0.00  0.00  0.00  0.99  0.01  0.00  0.00  0.97  0.00
  HS02004792HS02004799    1.00   0.00  0.00  0.00  0.99  0.01  0.00  0.00  0.92  0.00
  HS02004799HS02004480    1.00   0.00  0.05  0.00  0.79  0.00  0.17  0.00  0.00  0.00
  HS02004802HS02004478    1.00   0.19  0.00  0.00  0.81  0.00  0.00  0.00  0.03  0.00
  HS02004807HS02004802    1.00   0.18  0.00  0.00  0.81  0.00  0.00  0.01  0.01  0.00
  HS02004817HS02004807    1.00   0.00  0.18  0.00  0.82  0.00  0.00  0.00  0.01  0.00
  HS02004817HS02004824    1.00   0.00  0.00  0.00  1.00  0.00  0.00  0.00  0.87  0.00
  HS02004824HS02004830    1.00   0.00  0.00  0.00  1.00  0.00  0.00  0.00  0.01  0.00
  HS02004830HS02004837    1.00   0.00  0.00  0.00  1.00  0.00  0.00  0.00  0.94  0.00
  HS02004837HS02004842    1.00   0.00  0.00  0.00  1.00  0.00  0.00  0.00  0.14  0.00
  HS02004842HS02004848    1.00   0.00  0.18  0.00  0.82  0.00  0.00  0.00  0.49  0.00
  HS02004848HS02004852    1.00   0.18  0.00  0.00  0.82  0.00  0.00  0.00  0.62  0.00
  HS02004852HS02004856    1.00   0.18  0.01  0.00  0.81  0.00  0.00  0.00  0.67  0.00
  HS02004856HS02004862    1.00   0.00  0.24  0.00  0.76  0.00  0.00  0.00  0.70  0.00
  HS02004862HS02004870    1.00   0.00  0.00  0.00  1.00  0.00  0.00  0.00  0.07  0.00
  HS02004870HS02004876    1.00   0.00  0.00  0.00  0.97  0.02  0.00  0.00  0.90  0.00
  HS02004876HS02004881    1.00   0.02  0.00  0.00  0.79  0.19  0.00  0.00  0.00  0.00
  HS02004881HS02006253    1.00   0.00  0.08  0.00  0.35  0.01  0.00  0.55  0.28  0.00
  HS02004901HS02004770    1.00   0.18  0.00  0.00  0.82  0.00  0.00  0.00  0.01  0.00
  WS02001211WS02001212    1.00   0.00  0.02  0.00  0.98  0.00  0.00  0.00  0.00  0.00
  WS02001212WS02001213    1.00   0.02  0.00  0.00  0.43  0.00  0.55  0.00  0.00  0.00
  WS02001213WS02003059    1.00   0.00  0.00  0.00  0.99  0.00  0.00  0.00  0.00  0.00
  WS02003059WS02003060    1.00   0.00  0.00  0.00  1.00  0.00  0.00  0.00  0.04  0.00
  WS02003060WS02003069    1.00   0.00  0.00  0.00  0.94  0.06  0.00  0.00  0.29  0.00
  WS02003066WSF200        1.00   0.08  0.00  0.00  0.00  0.92  0.00  0.00  0.72  0.00
  WS02003067WS02003066    1.00   0.07  0.01  0.00  0.92  0.00  0.00  0.00  0.00  0.00
  WS02003069WS02003072    1.00   0.00  0.00  0.00  1.00  0.00  0.00  0.00  0.52  0.00
  WS02003072WS02003073    1.00   0.00  0.00  0.00  0.00  0.00  0.00  1.00  0.00  0.00
  WS02004138WS02004139    1.00   0.01  0.01  0.00  0.97  0.01  0.00  0.00  0.97  0.00
  WS02004139WS02001211    1.00   0.00  0.00  0.00  0.99  0.00  0.00  0.00  0.01  0.00
  WS02004401WS02004402    1.00   0.02  0.00  0.00  0.98  0.00  0.00  0.00  0.00  0.00
  WS02004402WS02004403    1.00   0.02  0.00  0.00  0.97  0.00  0.00  0.00  0.00  0.00
  WS02004403WS02004404    1.00   0.00  0.03  0.00  0.97  0.00  0.00  0.00  0.00  0.00
  WS02004404WS02004405    1.00   0.00  0.00  0.00  1.00  0.00  0.00  0.00  0.01  0.00
  WS02004405WS02004406    1.00   0.00  0.00  0.00  1.00  0.00  0.00  0.00  0.00  0.00
  WS02004406WS02004407    1.00   0.00  0.05  0.00  0.95  0.00  0.00  0.00  0.00  0.00
  WS02004407WS02004409    1.00   0.05  0.00  0.00  0.93  0.02  0.00  0.00  0.87  0.00
  WS02004409WS02004410    1.00   0.05  0.00  0.00  0.95  0.00  0.00  0.00  0.00  0.00
  WS02004410WS02004411    1.00   0.05  0.00  0.00  0.95  0.00  0.00  0.00  0.00  0.00
  WS02004411WS02004412    1.00   0.05  0.00  0.00  0.95  0.00  0.00  0.00  0.00  0.00
  WS02004412WS02004413    1.00   0.05  0.00  0.00  0.94  0.01  0.00  0.00  0.00  0.00
  WS02004413WS02003067    1.00   0.05  0.02  0.00  0.00  0.00  0.93  0.00  0.00  0.00
  WS02006109WS02006110    1.00   0.00  0.01  0.00  0.99  0.00  0.01  0.00  0.00  0.00
  WS02006110WS02006113    1.00   0.01  0.01  0.00  0.99  0.00  0.00  0.00  0.00  0.00
  WS02006111WS02006112    1.00   0.02  0.00  0.00  0.98  0.00  0.00  0.00  0.79  0.00
  WS02006112WS02006115    1.00   0.02  0.00  0.00  0.97  0.00  0.01  0.00  0.00  0.00
  WS02006113WS02006111    1.00   0.01  0.00  0.00  0.17  0.81  0.00  0.00  0.13  0.00
  WS02006115WS02006116    1.00   0.02  0.00  0.00  0.97  0.00  0.00  0.01  0.00  0.00
  WS02006116WS02004401    1.00   0.02  0.00  0.00  0.98  0.00  0.00  0.00  0.00  0.00
  WS02006228WS02006109    1.00   0.00  0.00  0.00  1.00  0.00  0.00  0.00  0.01  0.00
  WS02006229WS02006228    1.00   0.00  0.00  0.00  0.99  0.00  0.00  0.01  0.00  0.00
  WS02006230WS02006229    1.00   0.00  0.00  0.00  0.99  0.00  0.00  0.01  0.00  0.00
  WS02006231WS02006230    1.00   0.00  0.00  0.00  0.41  0.00  0.59  0.00  0.00  0.00
  WS02006232WS02006231    1.00   0.00  0.00  0.00  1.00  0.00  0.00  0.00  0.00  0.00
  WS02006234WS02006232    1.00   0.00  0.00  0.00  1.00  0.00  0.00  0.00  0.02  0.00
  WS02006235WS02006234    1.00   0.00  0.00  0.00  0.94  0.00  0.06  0.00  0.00  0.00
  WS02006238WS02006235    1.00   0.00  0.00  0.00  1.00  0.00  0.00  0.00  0.00  0.00
  WS02006239WS02006238    1.00   0.00  0.00  0.00  1.00  0.00  0.00  0.00  0.01  0.00
  WS02006240WS02006239    1.00   0.00  0.00  0.00  0.89  0.00  0.00  0.11  0.01  0.00
  WS02006242WS02006240    1.00   0.00  0.00  0.00  1.00  0.00  0.00  0.00  0.00  0.00
  WS02006243WS02006242    1.00   0.00  0.00  0.00  1.00  0.00  0.00  0.00  0.51  0.00
  WS02006245WS02006243    1.00   0.00  0.00  0.00  0.94  0.00  0.00  0.06  0.00  0.00
  WS02006247WS02006245    1.00   0.00  0.00  0.00  0.99  0.00  0.00  0.01  0.00  0.00
  WS02006248WS02006247    1.00   0.00  0.00  0.00  1.00  0.00  0.00  0.00  0.45  0.00
  WS02006249WS02006248    1.00   0.00  0.00  0.00  0.72  0.00  0.28  0.00  0.00  0.00
  WS02006251WS02006249    1.00   0.00  0.00  0.00  1.00  0.00  0.00  0.00  0.41  0.00
  WS02006252WS02006251    1.00   0.00  0.00  0.00  0.18  0.00  0.81  0.00  0.00  0.00
  WS02006253WS02006251    1.00   0.00  0.00  0.00  1.00  0.00  0.00  0.00  0.00  0.00
  WS02006256WS02006235    1.00   0.00  0.00  0.00  1.00  0.00  0.00  0.00  0.00  0.00
  WS02006280WS02006229    1.00   0.19  0.00  0.00  0.10  0.04  0.00  0.67  0.02  0.00
  WS02006284WS02006280    1.00   0.19  0.00  0.00  0.07  0.01  0.00  0.74  0.00  0.00
  WS02006287WS02006284    1.00   0.17  0.04  0.00  0.40  0.38  0.00  0.00  0.62  0.00
  WSF200WS02003060        1.00   0.00  0.08  0.00  0.58  0.34  0.00  0.00  0.58  0.00
  YS02001580YS02001583    1.00   0.34  0.49  0.00  0.17  0.00  0.00  0.00  0.58  0.00
  YS02001583YS02001586    1.00   0.23  0.54  0.00  0.23  0.00  0.00  0.00  0.58  0.00
  YS02001586YS02001590    1.00   0.18  0.00  0.00  0.52  0.08  0.00  0.21  0.49  0.00
  YS02001590YS02001593    1.00   0.18  0.01  0.00  0.07  0.00  0.74  0.00  0.00  0.00
  YS02001593YS02001596    1.00   0.19  0.00  0.00  0.09  0.01  0.00  0.71  0.02  0.00
  YS02001596YS02001600    1.00   0.19  0.00  0.00  0.17  0.02  0.00  0.62  0.07  0.00
  YS02001600YS02001601    1.00   0.19  0.00  0.00  0.81  0.00  0.00  0.00  0.56  0.00
  YS02001601YS02001602    1.00   0.18  0.01  0.00  0.81  0.00  0.00  0.00  0.00  0.00
  YS02001602YS02001605    1.00   0.19  0.00  0.00  0.81  0.00  0.00  0.00  0.00  0.00
  YS02001605YS02001607    1.00   0.19  0.00  0.00  0.81  0.00  0.00  0.00  0.01  0.00
  YS02001607YS02001610    1.00   0.19  0.01  0.00  0.81  0.00  0.00  0.00  0.04  0.00
  YS02001610YS02001613    1.00   0.19  0.00  0.00  0.81  0.00  0.00  0.00  0.03  0.00
  YS02001613YS02001616    1.00   0.18  0.00  0.00  0.82  0.00  0.00  0.00  0.01  0.00
  YS02001616YS02001619    1.00   0.18  0.00  0.00  0.82  0.00  0.00  0.00  0.00  0.00
  YS02001619YS02001622    1.00   0.18  0.00  0.00  0.82  0.00  0.00  0.00  0.08  0.00
  YS02001622YS02001625    1.00   0.18  0.00  0.00  0.82  0.00  0.00  0.00  0.11  0.00
  YS02001625YS02001629    1.00   0.19  0.06  0.00  0.12  0.00  0.64  0.00  0.00  0.00
  YS02001629YS02163301    1.00   0.22  0.01  0.00  0.77  0.00  0.00  0.00  0.00  0.00
  YS02001633YS02163601    1.00   0.00  0.00  0.00  1.00  0.00  0.00  0.00  0.22  0.00
  YS02001641YS02001644    1.00   0.00  0.00  0.00  1.00  0.00  0.00  0.00  0.00  0.00
  YS02001644YS02001647    1.00   0.00  0.25  0.00  0.75  0.00  0.00  0.00  0.00  0.00
  YS02001647YS02001649    1.00   0.00  0.24  0.00  0.25  0.51  0.00  0.00  0.46  0.00
  YS02001649YS02001757    1.00   0.00  0.00  0.00  0.77  0.23  0.00  0.00  0.87  0.00
  YS02001652YS02001649    1.00   0.00  0.00  0.00  0.97  0.03  0.00  0.00  0.77  0.00
  YS02001655YS02001652    1.00   0.00  0.00  0.00  0.14  0.02  0.00  0.84  0.11  0.00
  YS02001658YS02001655    1.00   0.00  0.20  0.00  0.44  0.36  0.00  0.00  0.72  0.00
  YS02001661YS02001658    1.00   0.20  0.00  0.00  0.16  0.64  0.00  0.00  0.67  0.00
  YS02001664YS02001661    1.00   0.18  0.00  0.00  0.70  0.12  0.00  0.00  0.83  0.00
  YS02001745YS02001748    1.00   0.00  0.00  0.00  0.00  0.00  0.00  1.00  0.00  0.00
  YS02001748YS02001751    1.00   0.00  0.00  0.00  0.70  0.30  0.00  0.00  0.83  0.00
  YS02001751YS02001754    1.00   0.00  0.00  0.00  0.07  0.02  0.00  0.92  0.06  0.00
  YS02001754YS02001757    1.00   0.00  0.00  0.00  1.00  0.00  0.00  0.00  0.91  0.00
  YS02001757CaochengTiaoxuchi    1.00   0.00  0.00  0.00  0.30  0.70  0.00  0.00  0.29  0.00
  YS02001759YS02001757    1.00   0.00  0.00  0.00  1.00  0.00  0.00  0.00  0.72  0.00
  YS02001762YS02001759    1.00   0.00  0.00  0.00  1.00  0.00  0.00  0.00  0.10  0.00
  YS02001765YS02001762    1.00   0.00  0.00  0.00  1.00  0.00  0.00  0.00  0.75  0.00
  YS02001767YS02001765    1.00   0.00  0.00  0.00  1.00  0.00  0.00  0.00  0.00  0.00
  YS02001770YS02001767    1.00   0.00  0.00  0.00  1.00  0.00  0.00  0.00  0.00  0.00
  YS02001774YS02001770    1.00   0.00  0.19  0.00  0.81  0.00  0.00  0.00  0.07  0.00
  YS02001779YS02001774    1.00   0.00  0.00  0.00  1.00  0.00  0.00  0.00  0.82  0.00
  YS02001783YS02001784    1.00   0.00  0.25  0.00  0.75  0.00  0.00  0.00  0.43  0.00
  YS02001784YS02001785    1.00   0.00  0.00  0.00  1.00  0.00  0.00  0.00  0.28  0.00
  YS02001786YS02001788    1.00   0.00  0.00  0.00  0.72  0.28  0.00  0.00  0.00  0.00
  YS02001788YS02001790    1.00   0.00  0.00  0.00  0.26  0.74  0.00  0.00  0.84  0.00
  YS02001790YS02001791    1.00   0.00  0.00  0.00  0.01  0.99  0.00  0.00  0.19  0.00
  YS02001791YS02001793    1.00   0.00  0.00  0.00  0.00  1.00  0.00  0.00  0.00  0.00
  YS02001793JiankangQianchi    1.00   0.00  0.00  0.00  0.07  0.93  0.00  0.00  0.13  0.00
  YS02001882YS02001884    1.00   0.21  0.02  0.00  0.77  0.00  0.00  0.00  0.00  0.00
  YS02001884YS02001887    1.00   0.11  0.07  0.00  0.82  0.00  0.00  0.00  0.00  0.00
  YS02001887YS02001890    1.00   0.00  0.00  0.00  0.96  0.00  0.03  0.00  0.00  0.00
  YS02001890YS02001895    1.00   0.00  0.23  0.00  0.76  0.00  0.00  0.00  0.00  0.00
  YS02001895YS02001898    1.00   0.24  0.00  0.00  0.74  0.00  0.01  0.00  0.00  0.00
  YS02001898YS02001901    1.00   0.23  0.01  0.00  0.76  0.00  0.00  0.00  0.02  0.00
  YS02001901YS02001904    1.00   0.23  0.00  0.00  0.77  0.00  0.00  0.00  0.00  0.00
  YS02001904YS02001907    1.00   0.00  0.23  0.00  0.77  0.00  0.00  0.00  0.00  0.00
  YS02001907YS02006553    1.00   0.00  0.02  0.00  0.98  0.00  0.00  0.00  0.00  0.00
  YS02001910YS02001907    1.00   0.00  0.00  0.00  0.97  0.01  0.00  0.03  0.17  0.00
  YS02001915YS02001910    1.00   0.00  0.00  0.00  0.97  0.03  0.00  0.00  0.27  0.00
  YS02001918YS02001915    1.00   0.00  0.00  0.00  0.97  0.02  0.00  0.00  0.74  0.00
  YS02001920YS02001918    1.00   0.00  0.00  0.00  1.00  0.00  0.00  0.00  0.00  0.00
  YS02001923YS02001920    1.00   0.00  0.00  0.00  1.00  0.00  0.00  0.00  0.99  0.00
  YS02001926YS02001923    1.00   0.00  0.15  0.00  0.00  0.00  0.85  0.00  0.00  0.00
  YS02001929YS02001926    1.00   0.00  0.18  0.00  0.82  0.00  0.00  0.00  0.83  0.00
  YS02006553YS02006556    1.00   0.01  0.00  0.00  0.99  0.00  0.00  0.00  0.04  0.00
  YS02006556YS02006558    1.00   0.00  0.00  0.00  1.00  0.00  0.00  0.00  0.00  0.00
  YS02006558YS02006561    1.00   0.25  0.00  0.00  0.00  0.75  0.00  0.00  0.25  0.00
  YS02006561YS02001783    1.00   0.25  0.00  0.00  0.05  0.70  0.00  0.00  0.62  0.00
  YS02163301YS02001633    1.00   0.00  0.22  0.00  0.78  0.00  0.00  0.00  0.00  0.00
  YS02163601YS02164001    1.00   0.00  0.16  0.00  0.84  0.00  0.00  0.00  0.00  0.00
  YS02164001YS02001641    1.00   0.00  0.15  0.00  0.84  0.00  0.00  0.00  0.08  0.00
  YSB1154YSB6556          1.00   0.18  0.00  0.00  0.82  0.00  0.00  0.00  0.03  0.00
  YSB1171HS02004479       1.00   0.05  0.00  0.00  0.91  0.01  0.00  0.03  0.15  0.00
  YSB1174YSB1171          1.00   0.08  0.09  0.00  0.83  0.00  0.00  0.00  0.00  0.00
  YSB6556YSB1171          1.00   0.05  0.13  0.00  0.82  0.00  0.00  0.00  0.00  0.00
  
  
  *************************
  Conduit Surcharge Summary
  *************************
  
  ----------------------------------------------------------------------------
                                                           Hours        Hours 
                         --------- Hours Full --------   Above Full   Capacity
  Conduit                Both Ends  Upstream  Dnstream   Normal Flow   Limited
  ----------------------------------------------------------------------------
  HS02004478WS02006287        0.01      0.01      0.05      0.01         0.01
  HS02004479HS02004480        0.06      0.06      0.12      0.01         0.01
  HS02004480HS02004478        0.01      0.05      0.01      1.02         0.01
  HS02004785HS02004788        0.01      0.01      0.01      0.70         0.01
  HS02004792HS02004799        0.01      0.01      0.20      0.01         0.01
  HS02004799HS02004480        0.05      0.05      0.20      0.26         0.01
  HS02004802HS02004478        0.01      0.01      0.10      0.01         0.01
  HS02004807HS02004802        0.01      0.01      0.07      0.01         0.01
  HS02004817HS02004807        0.01      0.01      0.54      0.01         0.01
  HS02004817HS02004824        0.01      0.01      0.54      0.01         0.01
  HS02004876HS02004881        0.01      0.01      0.01      0.73         0.01
  HS02004881HS02006253        0.01      0.01      0.95      0.01         0.01
  WS02003072WS02003073        0.01      0.01      0.01      2.07         0.01
  WS02004401WS02004402        1.03      1.03      1.07      0.65         0.66
  WS02004402WS02004403        1.07      1.07      1.07      1.02         1.02
  WS02004403WS02004404        1.07      1.07      1.11      0.01         0.01
  WS02004404WS02004405        1.10      1.11      1.10      3.53         1.10
  WS02004405WS02004406        1.10      1.10      1.10      1.18         1.10
  WS02004406WS02004407        0.01      0.01      1.10      0.01         0.01
  WS02004407WS02004409        0.01      0.01      0.43      0.01         0.01
  WS02004409WS02004410        0.38      0.43      0.38      0.78         0.38
  WS02004410WS02004411        0.31      0.38      0.31      0.97         0.31
  WS02004411WS02004412        0.23      0.31      0.23      1.01         0.23
  WS02004412WS02004413        0.23      0.23      0.60      0.01         0.01
  WS02004413WS02003067        0.01      0.01      0.60      0.01         0.01
  WS02006109WS02006110        1.14      1.14      1.57      1.15         0.01
  WS02006110WS02006113        0.58      0.58      1.51      0.01         0.01
  WS02006111WS02006112        0.55      0.55      1.94      0.01         0.01
  WS02006112WS02006115        0.84      0.84      1.20      0.01         0.01
  WS02006113WS02006111        0.56      0.58      0.56      0.65         0.56
  WS02006115WS02006116        0.88      0.88      0.89      0.77         0.75
  WS02006116WS02004401        1.02      1.02      1.03      1.01         0.98
  WS02006228WS02006109        1.44      1.57      1.44      2.27         1.44
  WS02006229WS02006228        1.41      1.49      1.41      1.93         1.41
  WS02006230WS02006229        1.70      1.81      1.70      3.50         1.28
  WS02006231WS02006230        1.11      1.11      1.12      3.21         0.39
  WS02006232WS02006231        1.12      1.12      1.43      0.01         0.02
  WS02006234WS02006232        1.16      1.16      1.43      0.01         0.01
  WS02006235WS02006234        1.14      1.14      1.25      2.71         0.37
  WS02006238WS02006235        1.28      1.28      1.42      0.01         0.09
  WS02006239WS02006238        1.32      1.37      1.33      0.90         0.38
  WS02006240WS02006239        1.22      1.25      1.23      0.87         0.29
  WS02006242WS02006240        1.23      1.23      1.47      1.36         0.32
  WS02006243WS02006242        1.27      1.27      1.40      0.01         0.01
  WS02006245WS02006243        1.22      1.24      1.24      0.53         0.20
  WS02006247WS02006245        1.21      1.28      1.21      2.06         0.69
  WS02006248WS02006247        1.19      1.19      1.26      0.01         0.01
  WS02006249WS02006248        1.15      1.16      1.22      1.35         0.01
  WS02006251WS02006249        1.20      1.24      1.22      1.30         0.90
  WS02006252WS02006251        1.53      1.53      1.57      1.17         0.01
  WS02006253WS02006251        1.21      1.22      1.28      0.24         0.01
  WS02006256WS02006235        2.98      2.98      5.99      0.51         0.01
  WS02006280WS02006229        0.24      0.24      0.34      0.01         0.01
  WS02006284WS02006280        0.12      0.12      0.22      0.01         0.01
  WS02006287WS02006284        0.01      0.01      0.14      0.01         0.01
  YS02001583YS02001586        0.01      0.01      0.07      0.01         0.01
  YS02001586YS02001590        0.08      0.08      0.17      0.01         0.01
  YS02001590YS02001593        0.17      0.17      0.20      0.15         0.01
  YS02001593YS02001596        0.19      0.19      0.30      0.01         0.01
  YS02001596YS02001600        0.33      0.33      0.41      0.01         0.01
  YS02001600YS02001601        0.45      0.45      0.71      0.01         0.01
  YS02001601YS02001602        0.60      0.60      0.75      0.43         0.01
  YS02001602YS02001605        0.56      0.56      0.60      1.60         0.01
  YS02001605YS02001607        0.52      0.56      0.52      0.67         0.52
  YS02001607YS02001610        0.11      0.11      0.14      0.01         0.01
  YS02001610YS02001613        0.10      0.10      0.14      0.01         0.01
  YS02001613YS02001616        0.01      0.01      0.10      0.01         0.01
  YS02001616YS02001619        0.01      0.01      0.01      0.01         0.01
  YS02001619YS02001622        0.01      0.01      0.01      0.21         0.01
  YS02001622YS02001625        0.01      0.01      0.24      0.01         0.01
  YS02001625YS02001629        0.01      0.01      0.24      0.01         0.01
  YS02001629YS02163301        0.22      0.22      0.23      0.02         0.03
  YS02001633YS02163601        0.25      0.25      0.28      0.13         0.13
  YS02001641YS02001644        0.06      0.14      0.06      0.80         0.06
  YS02001644YS02001647        0.01      0.01      0.06      0.01         0.01
  YS02001770YS02001767        0.01      0.01      0.01      0.07         0.01
  YS02001783YS02001784        0.01      0.01      0.01      0.18         0.01
  YS02001784YS02001785        0.01      0.01      0.01      0.39         0.01
  YS02001786YS02001788        0.01      0.01      0.01      0.28         0.01
  YS02001793JiankangQianchi        0.01      0.01      0.26      0.01         0.01
  YS02001904YS02001907        0.01      0.01      0.27      0.01         0.01
  YS02001907YS02006553        0.40      0.40      0.45      0.01         0.01
  YS02001910YS02001907        0.01      0.01      0.25      0.01         0.01
  YS02006553YS02006556        0.14      0.14      0.27      0.01         0.01
  YS02006556YS02006558        0.21      0.21      0.28      0.01         0.01
  YS02006558YS02006561        0.01      0.12      0.01      0.35         0.01
  YS02163301YS02001633        0.23      0.23      0.27      0.01         0.01
  YS02163601YS02164001        0.15      0.15      0.28      0.01         0.01
  YS02164001YS02001641        0.14      0.15      0.14      0.32         0.14
  YSB1154YSB6556              0.17      0.17      0.29      0.01         0.01
  YSB1171HS02004479           0.01      0.01      0.29      0.01         0.01
  YSB1174YSB1171              0.23      0.23      0.47      0.01         0.01
  YSB6556YSB1171              0.17      0.17      0.59      0.01         0.01
  
  
  ***************
  Pumping Summary
  ***************
  
  ---------------------------------------------------------------------------------------------------------
                                                  Min       Avg       Max     Total     Power    % Time Off
                        Percent   Number of      Flow      Flow      Flow    Volume     Usage    Pump Curve
  Pump                 Utilized   Start-Ups       LPS       LPS       LPS  10^6 ltr     Kw-hr    Low   High
  ---------------------------------------------------------------------------------------------------------
  CC-R1                   69.59           8      0.00    329.14    683.00     3.896     61.83    0.0  100.0
  CC-R2                   30.62          10      0.00    367.38    683.00     1.757     27.59    0.0  100.0
  CC-S1                   69.35           7      0.00    106.98    200.00     1.409     11.49    0.0   82.5
  CC-S2                   41.72           7      0.00     99.96    200.00     0.977      7.91    0.0   73.3
  JK-R1                   60.96          12      0.00    101.43   1000.00     1.209      3.66    0.0    0.0
  JK-R2                   44.26          11      0.00    141.60   1000.00     1.079      3.36    0.0    0.0
  JK-S                    58.16           8      0.00     67.79    300.00     0.823     17.06    0.0    0.0
  XR-1                    97.22           1      0.00     95.00     95.00     1.995      8.84    0.0    0.0
  XR-2                    91.93           1      0.00     95.00     95.00     1.886      8.00    0.0    0.0
  XR-3                     0.00           0      0.00      0.00      0.00     0.000      0.00    0.0    0.0
  XR-4                     0.00           0      0.00      0.00      0.00     0.000      0.00    0.0    0.0
  

  Analysis begun on:  Mon Aug 22 16:55:42 2022
  Analysis ended on:  Mon Aug 22 16:55:48 2022
  Total elapsed time: 00:00:06