
  OWA STORM WATER MANAGEMENT MODEL - VERSION v5.1.14 (OWA 2022-07-31)
  --------------------------------------------------------------

  WARNING 04: minimum elevation drop used for Conduit WS02004404WS02004405
  WARNING 03: negative offset ignored for Link YS02001904YS02001907
  
  *********************************************************
  NOTE: The summary statistics displayed in this report are
  based on results found at every computational time step,  
  not just on results from each reporting time step.
  *********************************************************
  
  ****************
  Analysis Options
  ****************
  Flow Units ............... LPS
  Process Models:
    Rainfall/Runoff ........ YES
    RDII ................... NO
    Snowmelt ............... NO
    Groundwater ............ NO
    Flow Routing ........... YES
    Ponding Allowed ........ NO
    Water Quality .......... NO
  Infiltration Method ...... HORTON
  Flow Routing Method ...... DYNWAVE
  Surcharge Method ......... EXTRAN
  Starting Date ............ 01/01/2000 00:00:00
  Ending Date .............. 01/01/2000 06:00:00
  Antecedent Dry Days ...... 8.0
  Report Time Step ......... 00:01:00
  Wet Time Step ............ 00:01:00
  Dry Time Step ............ 00:01:00
  Routing Time Step ........ 30.00 sec
  Variable Time Step ....... YES
  Maximum Trials ........... 8
  Number of Threads ........ 4
  Head Tolerance ........... 0.001500 m
  
  
  **************************        Volume         Depth
  Runoff Quantity Continuity     hectare-m            mm
  **************************     ---------       -------
  Total Precipitation ......         1.749        28.879
  Evaporation Loss .........         0.000         0.000
  Infiltration Loss ........         0.203         3.345
  Surface Runoff ...........         1.483        24.480
  Final Storage ............         0.064         1.061
  Continuity Error (%) .....        -0.026
  
  
  **************************        Volume        Volume
  Flow Routing Continuity        hectare-m      10^6 ltr
  **************************     ---------     ---------
  Dry Weather Inflow .......         0.472         4.722
  Wet Weather Inflow .......         1.483        14.828
  Groundwater Inflow .......         0.000         0.000
  RDII Inflow ..............         0.000         0.000
  External Inflow ..........         0.078         0.784
  External Outflow .........         1.547        15.466
  Flooding Loss ............         0.394         3.942
  Evaporation Loss .........         0.000         0.000
  Exfiltration Loss ........         0.000         0.000
  Initial Stored Volume ....         0.303         3.031
  Final Stored Volume ......         0.479         4.787
  Continuity Error (%) .....        -3.554
  
  
  *************************
  Highest Continuity Errors
  *************************
  Node JK-storage (-31.41%)
  Node YS02001583 (-9.34%)
  Node YS02001884 (5.38%)
  Node HS02004842 (2.61%)
  Node HS02004817 (2.05%)
  
  
  ***************************
  Time-Step Critical Elements
  ***************************
  Link WS02006235WS02006234 (26.52%)
  Link WS02006280WS02006229 (21.07%)
  Link WS02004404WS02004405 (12.86%)
  Link WS02003066WSF200 (10.78%)
  Link YS02001793JiankangQianchi (6.78%)
  
  
  ********************************
  Highest Flow Instability Indexes
  ********************************
  Link WS02006113WS02006111 (45)
  Link WS02006111WS02006112 (42)
  Link WS02006110WS02006113 (32)
  Link WS02006112WS02006115 (16)
  Link WS02004404WS02004405 (14)
  
  
  *************************
  Routing Time Step Summary
  *************************
  Minimum Time Step           :     0.32 sec
  Average Time Step           :     2.14 sec
  Maximum Time Step           :     8.46 sec
  Percent in Steady State     :     0.00
  Average Iterations per Step :     2.95
  Percent Not Converging      :    10.92
  
  
  ***************************
  Subcatchment Runoff Summary
  ***************************
  
  ------------------------------------------------------------------------------------------------------------------------------
                            Total      Total      Total      Total     Imperv       Perv      Total       Total     Peak  Runoff
                           Precip      Runon       Evap      Infil     Runoff     Runoff     Runoff      Runoff   Runoff   Coeff
  Subcatchment                 mm         mm         mm         mm         mm         mm         mm    10^6 ltr      LPS
  ------------------------------------------------------------------------------------------------------------------------------
  sub0                      28.88       0.00       0.00       0.84      25.59       1.19      26.78        0.02    18.40   0.927
  sub1                      28.88       0.00       0.00       1.44      24.40       1.74      26.14        0.17   120.91   0.905
  sub10                     28.88       0.00       0.00       1.01      25.24       1.30      26.54        0.29   209.39   0.919
  sub11                     28.88       0.00       0.00       0.99      25.27       1.32      26.59        0.31   235.37   0.921
  sub12                     28.88       0.00       0.00       1.61      23.93       2.14      26.07        0.23   188.65   0.903
  sub14                     28.88       0.00       0.00       1.13      24.98       1.47      26.45        0.25   186.28   0.916
  sub15                     28.88       0.00       0.00       4.51      19.21       4.16      23.37        0.40   268.68   0.809
  sub16                     28.88       0.00       0.00       4.65      18.42       4.88      23.30        0.24   182.68   0.807
  sub17                     28.88       0.00       0.00       4.54      18.69       4.70      23.40        0.20   148.49   0.810
  sub2                      28.88       0.00       0.00       6.35      17.24       4.34      21.58        0.20   113.23   0.747
  sub22                     28.88       0.00       0.00       6.82      15.66       5.60      21.26        1.34   874.44   0.736
  sub23                     28.88       0.00       0.00       5.57      17.31       5.11      22.42        1.07   736.67   0.777
  sub3                      28.88       0.00       0.00       6.78      17.17       3.91      21.08        0.47   235.90   0.730
  sub4                      28.88       0.00       0.00       1.62      24.11       1.56      25.67        0.54   261.32   0.889
  sub5                      28.88       0.00       0.00       0.88      25.50       1.14      26.64        0.30   211.11   0.922
  sub60                     28.88       0.00       0.00       1.52      24.18       1.94      26.12        0.34   264.86   0.905
  sub61                     28.88       0.00       0.00       2.22      22.81       2.69      25.51        0.47   363.15   0.883
  sub62                     28.88       0.00       0.00       1.01      25.23       1.30      26.52        0.73   511.00   0.918
  sub63                     28.88       0.00       0.00       4.13      19.51       4.24      23.75        0.54   390.92   0.823
  sub64                     28.88       0.00       0.00       2.08      23.28       2.25      25.53        0.61   399.75   0.884
  sub65                     28.88       0.00       0.00       1.80      23.79       1.95      25.74        0.71   442.56   0.891
  sub66                     28.88       0.00       0.00       5.03      19.32       3.34      22.67        1.06   530.73   0.785
  sub67                     28.88       0.00       0.00       0.97      25.30       1.34      26.64        0.50   404.17   0.922
  sub68                     28.88       0.00       0.00       1.84      23.61       2.21      25.82        0.71   521.29   0.894
  sub69                     28.88       0.00       0.00       1.58      24.36       2.76      27.11        1.00   599.44   0.939
  sub7                      28.88       0.00       0.00       1.11      25.01       1.49      26.49        0.09    69.78   0.917
  sub70                     28.88       0.00       0.00       5.22      18.78       4.59      23.37        0.68   299.80   0.809
  sub71                     28.88       0.00       0.00       1.05      25.16       1.27      26.42        0.69   435.87   0.915
  sub72                     28.88       0.00       0.00       0.93      25.32       1.09      26.41        0.36   202.50   0.915
  sub8                      28.88       0.00       0.00       1.13      24.99       1.47      26.46        0.17   127.14   0.916
  sub9                      28.88       0.00       0.00       1.13      24.98       1.47      26.45        0.13    94.84   0.916
  
  
  ******************
  Node Depth Summary
  ******************
  
  ---------------------------------------------------------------------------------
                                 Average  Maximum  Maximum  Time of Max    Reported
                                   Depth    Depth      HGL   Occurrence   Max Depth
  Node                 Type       Meters   Meters   Meters  days hr:min      Meters
  ---------------------------------------------------------------------------------
  HS02004478           JUNCTION     0.18     1.54    10.77     0  02:15        1.49
  HS02004479           JUNCTION     0.25     1.71    10.91     0  02:13        1.66
  HS02004480           JUNCTION     0.22     1.67    10.91     0  02:15        1.63
  HS02004770           JUNCTION     0.23     1.42    11.25     0  02:12        1.42
  HS02004777           JUNCTION     0.26     1.48    11.28     0  02:12        1.48
  HS02004785           JUNCTION     0.15     1.49    11.39     0  02:12        1.49
  HS02004788           JUNCTION     0.12     1.42    11.32     0  02:12        1.42
  HS02004792           JUNCTION     0.16     1.60    11.12     0  02:12        1.60
  HS02004799           JUNCTION     0.27     1.76    10.97     0  02:13        1.76
  HS02004802           JUNCTION     0.28     1.75    10.88     0  02:15        1.69
  HS02004807           JUNCTION     0.24     1.92    11.09     0  02:15        1.75
  HS02004817           JUNCTION     0.55     2.44    11.29     0  02:15        2.07
  HS02004824           JUNCTION     0.12     2.01    11.41     0  02:15        1.45
  HS02004830           JUNCTION     0.12     2.03    11.50     0  02:15        1.24
  HS02004837           JUNCTION     0.09     2.04    11.62     0  02:15        1.02
  HS02004842           JUNCTION     0.39     2.22    11.49     0  02:15        1.31
  HS02004848           JUNCTION     0.07     2.07    11.67     0  02:15        0.97
  HS02004852           JUNCTION     0.08     2.10    11.61     0  02:15        1.02
  HS02004856           JUNCTION     0.14     2.07    11.50     0  02:15        1.09
  HS02004862           JUNCTION     0.09     2.00    11.38     0  02:15        1.11
  HS02004870           JUNCTION     0.08     2.10    11.39     0  02:15        1.15
  HS02004876           JUNCTION     0.13     2.26    11.29     0  02:15        1.33
  HS02004881           JUNCTION     0.07     2.15    11.18     0  02:15        1.21
  HS02004901           JUNCTION     0.24     1.42    11.24     0  02:12        1.42
  WS02001211           JUNCTION     0.64     0.80     5.64     0  02:18        0.80
  WS02001212           JUNCTION     0.39     0.56     5.63     0  02:16        0.56
  WS02001213           JUNCTION     0.63     0.86     5.63     0  02:16        0.86
  WS02003059           JUNCTION     0.70     0.93     5.62     0  02:16        0.93
  WS02003060           JUNCTION     0.43     0.67     5.60     0  02:20        0.67
  WS02003066           JUNCTION     0.26     0.44     6.00     0  02:15        0.44
  WS02003067           JUNCTION     0.61     0.88     6.20     0  02:15        0.88
  WS02003069           JUNCTION     0.49     0.76     5.34     0  02:20        0.76
  WS02003072           JUNCTION     0.55     0.79     5.17     0  02:21        0.79
  WS02003073           JUNCTION     0.33     0.50     4.57     0  02:22        0.50
  WS02004138           JUNCTION     0.13     0.14     7.39     0  00:29        0.14
  WS02004139           JUNCTION     0.58     0.73     5.64     0  02:18        0.73
  WS02004401           JUNCTION     0.85     1.73     7.73     0  02:14        1.72
  WS02004402           JUNCTION     0.86     1.70     7.66     0  02:06        1.67
  WS02004403           JUNCTION     0.87     1.70     7.63     0  02:06        1.61
  WS02004404           JUNCTION     0.93     1.73     7.58     0  02:06        1.62
  WS02004405           JUNCTION     0.92     1.66     7.51     0  02:06        1.57
  WS02004406           JUNCTION     0.91     1.94     7.77     0  02:06        1.47
  WS02004407           JUNCTION     0.30     0.83     7.14     0  02:15        0.83
  WS02004409           JUNCTION     0.63     1.32     7.09     0  02:15        1.31
  WS02004410           JUNCTION     0.63     1.24     6.96     0  02:15        1.23
  WS02004411           JUNCTION     0.63     1.16     6.84     0  02:15        1.16
  WS02004412           JUNCTION     0.63     1.07     6.71     0  02:15        1.07
  WS02004413           JUNCTION     0.75     1.13     6.60     0  02:15        1.12
  WS02006109           JUNCTION     1.07     2.64     9.26     0  02:13        2.64
  WS02006110           JUNCTION     1.00     2.76     9.34     0  02:06        2.34
  WS02006111           JUNCTION     0.43     2.68     9.39     0  02:06        1.58
  WS02006112           JUNCTION     1.07     2.63     8.52     0  02:06        2.20
  WS02006113           JUNCTION     0.55     2.45     9.34     0  02:06        1.72
  WS02006115           JUNCTION     0.78     1.80     7.94     0  02:14        1.80
  WS02006116           JUNCTION     0.84     1.80     7.84     0  02:14        1.80
  WS02006228           JUNCTION     1.13     3.03     9.68     0  02:13        2.98
  WS02006229           JUNCTION     1.14     3.24     9.93     0  02:13        3.15
  WS02006230           JUNCTION     1.12     2.65     9.39     0  02:04        2.65
  WS02006231           JUNCTION     0.82     2.24     9.36     0  02:04        2.19
  WS02006232           JUNCTION     0.94     2.18     9.22     0  02:04        2.18
  WS02006234           JUNCTION     0.87     1.96     9.12     0  02:04        1.96
  WS02006235           JUNCTION     0.89     2.00     9.16     0  02:04        1.92
  WS02006238           JUNCTION     0.92     2.06     9.21     0  02:04        1.92
  WS02006239           JUNCTION     0.90     2.03     9.24     0  02:04        1.79
  WS02006240           JUNCTION     0.86     2.10     9.39     0  02:04        1.62
  WS02006242           JUNCTION     0.94     1.55     8.82     0  02:04        1.55
  WS02006243           JUNCTION     0.85     1.48     8.90     0  02:04        1.36
  WS02006245           JUNCTION     0.85     1.56     9.04     0  02:04        1.26
  WS02006247           JUNCTION     0.87     1.47     8.97     0  02:04        1.22
  WS02006248           JUNCTION     0.83     1.10     8.69     0  02:04        1.10
  WS02006249           JUNCTION     0.85     1.09     8.69     0  02:04        1.09
  WS02006251           JUNCTION     0.94     2.21     9.88     0  02:15        2.06
  WS02006252           JUNCTION     0.59     1.50     9.74     0  02:00        1.50
  WS02006253           JUNCTION     0.99     3.52    11.16     0  02:15        2.56
  WS02006256           JUNCTION     1.16     2.35     9.28     0  00:00        2.35
  WS02006280           JUNCTION     0.24     1.76    10.03     0  02:13        1.66
  WS02006284           JUNCTION     0.51     1.93    10.33     0  02:15        1.87
  WS02006287           JUNCTION     0.24     1.70    10.66     0  02:15        1.65
  WSF200               JUNCTION     0.28     0.50     5.74     0  02:18        0.50
  YS02001580           JUNCTION     0.06     1.05     9.59     0  02:13        0.74
  YS02001583           JUNCTION     0.09     1.14     9.64     0  02:13        0.78
  YS02001586           JUNCTION     0.15     1.13     9.30     0  02:13        1.10
  YS02001590           JUNCTION     0.24     1.40     9.26     0  02:13        1.34
  YS02001593           JUNCTION     0.18     1.37     9.23     0  02:13        1.26
  YS02001596           JUNCTION     0.25     1.71     9.13     0  02:13        1.64
  YS02001600           JUNCTION     0.35     1.87     9.00     0  02:13        1.84
  YS02001601           JUNCTION     0.56     2.06     8.90     0  02:12        2.06
  YS02001602           JUNCTION     0.47     1.87     8.77     0  02:13        1.87
  YS02001605           JUNCTION     0.45     1.78     8.68     0  02:13        1.77
  YS02001607           JUNCTION     0.45     1.65     8.49     0  02:21        1.64
  YS02001610           JUNCTION     0.50     1.68     8.48     0  02:13        1.68
  YS02001613           JUNCTION     0.45     1.70     8.54     0  02:13        1.64
  YS02001616           JUNCTION     0.39     1.61     8.52     0  02:13        1.57
  YS02001619           JUNCTION     0.37     1.61     8.54     0  02:13        1.54
  YS02001622           JUNCTION     0.37     1.62     8.52     0  02:12        1.62
  YS02001625           JUNCTION     0.63     1.78     8.38     0  02:13        1.78
  YS02001629           JUNCTION     0.57     1.85     8.40     0  02:13        1.81
  YS02001633           JUNCTION     0.65     1.95     8.41     0  02:17        1.86
  YS02001641           JUNCTION     0.63     1.81     8.25     0  02:17        1.69
  YS02001644           JUNCTION     0.63     1.77     8.20     0  02:19        1.64
  YS02001647           JUNCTION     0.44     1.49     8.10     0  02:19        1.34
  YS02001649           JUNCTION     0.59     1.60     7.99     0  02:19        1.45
  YS02001652           JUNCTION     0.42     1.55     8.15     0  02:19        1.31
  YS02001655           JUNCTION     0.28     1.54     8.39     0  02:20        1.20
  YS02001658           JUNCTION     0.15     0.77     7.92     0  02:18        0.76
  YS02001661           JUNCTION     0.12     0.48     7.89     0  02:18        0.43
  YS02001664           JUNCTION     0.05     0.24     8.16     0  02:15        0.24
  YS02001745           JUNCTION     0.04     0.22     7.73     0  02:15        0.22
  YS02001748           JUNCTION     0.17     0.64     7.71     0  02:17        0.63
  YS02001751           JUNCTION     0.26     0.85     7.73     0  02:17        0.85
  YS02001754           JUNCTION     0.40     1.71     8.32     0  02:17        1.08
  YS02001757           JUNCTION     0.68     1.61     7.87     0  02:17        1.43
  YS02001759           JUNCTION     0.59     1.59     7.96     0  02:16        1.46
  YS02001762           JUNCTION     0.56     1.74     8.14     0  02:16        1.64
  YS02001765           JUNCTION     0.52     1.80     8.25     0  02:16        1.67
  YS02001767           JUNCTION     0.50     1.83     8.31     0  02:16        1.77
  YS02001770           JUNCTION     0.50     1.95     8.44     0  02:15        1.79
  YS02001774           JUNCTION     0.57     1.96     8.39     0  02:15        1.90
  YS02001779           JUNCTION     0.35     1.68     8.37     0  02:15        1.68
  YS02001783           JUNCTION     0.21     1.22     7.36     0  02:16        1.19
  YS02001784           JUNCTION     0.23     1.11     7.18     0  02:16        1.09
  YS02001786           JUNCTION     0.19     0.88     6.91     0  02:16        0.86
  YS02001788           JUNCTION     0.14     0.61     6.59     0  02:17        0.61
  YS02001790           JUNCTION     0.17     0.71     6.36     0  02:17        0.71
  YS02001791           JUNCTION     0.10     0.43     5.90     0  02:17        0.41
  YS02001793           JUNCTION     0.06     0.25     5.08     0  02:17        0.25
  YS02001882           JUNCTION     0.26     1.63     8.35     0  02:16        1.57
  YS02001884           JUNCTION     0.36     1.72     8.34     0  02:16        1.66
  YS02001887           JUNCTION     0.43     1.79     8.33     0  02:16        1.74
  YS02001890           JUNCTION     0.46     1.81     8.32     0  02:16        1.77
  YS02001895           JUNCTION     0.23     1.56     8.31     0  02:16        1.52
  YS02001898           JUNCTION     0.24     1.56     8.30     0  02:16        1.53
  YS02001901           JUNCTION     0.36     1.67     8.28     0  02:16        1.65
  YS02001904           JUNCTION     0.34     1.64     8.27     0  02:16        1.62
  YS02001907           JUNCTION     0.66     1.96     8.25     0  02:16        1.96
  YS02001910           JUNCTION     0.45     1.87     8.37     0  02:14        1.78
  YS02001915           JUNCTION     0.26     1.84     8.56     0  02:14        1.61
  YS02001918           JUNCTION     0.13     1.59     8.66     0  02:16        1.28
  YS02001920           JUNCTION     0.21     1.57     8.57     0  02:17        1.36
  YS02001923           JUNCTION     0.09     1.34     8.60     0  02:17        1.12
  YS02001926           JUNCTION     0.13     1.84     9.28     0  02:17        0.93
  YS02001929           JUNCTION     0.07     0.84     8.53     0  02:17        0.80
  YS02006553           JUNCTION     0.66     1.96     8.24     0  02:17        1.95
  YS02006556           JUNCTION     0.64     1.91     8.22     0  02:16        1.89
  YS02006558           JUNCTION     0.68     1.94     8.21     0  02:16        1.93
  YS02006561           JUNCTION     0.13     0.88     7.54     0  02:16        0.85
  YS02163301           JUNCTION     0.59     1.89     8.41     0  02:17        1.81
  YS02163601           JUNCTION     0.69     1.94     8.34     0  02:17        1.82
  YS02164001           JUNCTION     0.62     1.84     8.30     0  02:17        1.71
  YSB1154              JUNCTION     0.39     1.97    11.02     0  02:13        1.81
  YSB1171              JUNCTION     0.54     1.95    10.85     0  02:13        1.95
  YSB1174              JUNCTION     0.34     1.82    10.93     0  02:13        1.74
  YSB6556              JUNCTION     0.28     1.80    10.97     0  02:13        1.69
  CC-1                 OUTFALL      0.00     0.00     0.00     0  00:00        0.00
  CC-2                 OUTFALL      0.00     0.00     0.00     0  00:00        0.00
  JK-1                 OUTFALL      0.00     0.00     0.00     0  00:00        0.00
  JK-2                 OUTFALL      0.00     0.00     0.00     0  00:00        0.00
  WSC                  OUTFALL      0.33     0.50     1.17     0  02:22        0.50
  CC-storage           STORAGE      1.35     1.99     7.49     0  02:56        1.99
  JK-storage           STORAGE      0.20     2.99     3.79     0  00:00        2.80
  XR-storage           STORAGE      7.93     8.66     6.66     0  06:00        8.66
  
  
  *******************
  Node Inflow Summary
  *******************
  
  -------------------------------------------------------------------------------------------------
                                  Maximum  Maximum                  Lateral       Total        Flow
                                  Lateral    Total  Time of Max      Inflow      Inflow     Balance
                                   Inflow   Inflow   Occurrence      Volume      Volume       Error
  Node                 Type           LPS      LPS  days hr:min    10^6 ltr    10^6 ltr     Percent
  -------------------------------------------------------------------------------------------------
  HS02004478           JUNCTION      0.00  2125.69     0  02:13           0        4.67      -0.014
  HS02004479           JUNCTION      0.00   399.98     0  02:15           0       0.538       0.154
  HS02004480           JUNCTION      0.00  2121.84     0  02:13           0        3.71       0.068
  HS02004770           JUNCTION    736.67   776.57     0  02:12        1.07        1.25       0.256
  HS02004777           JUNCTION      0.03   776.84     0  02:12    0.000648        1.16       0.458
  HS02004785           JUNCTION      0.15   782.77     0  02:12     0.00324        1.16       0.066
  HS02004788           JUNCTION    270.35   966.46     0  02:12       0.438         1.6      -0.006
  HS02004792           JUNCTION    874.72  1579.61     0  02:13        1.35        2.94       0.018
  HS02004799           JUNCTION    186.28  1748.78     0  02:13       0.252        3.18       0.081
  HS02004802           JUNCTION      0.00   341.75     0  02:32           0           1       0.403
  HS02004807           JUNCTION    235.37   447.89     0  02:13       0.309        1.05       0.391
  HS02004817           JUNCTION      0.60   447.06     0  02:13       0.013       0.805       2.093
  HS02004824           JUNCTION    261.37   673.71     0  02:13       0.537       0.954       0.074
  HS02004830           JUNCTION      0.15   671.84     0  02:13     0.00324       0.578       0.209
  HS02004837           JUNCTION    215.74   884.58     0  02:13        0.43       0.755       0.084
  HS02004842           JUNCTION      0.00   868.39     0  02:14           0       0.505       2.682
  HS02004848           JUNCTION    235.90  1084.28     0  02:14       0.474       0.866       0.006
  HS02004852           JUNCTION      0.00  1019.07     0  02:14           0       0.767       0.003
  HS02004856           JUNCTION     94.84  1073.24     0  02:14       0.127       0.894       0.158
  HS02004862           JUNCTION    113.43  1183.96     0  02:15       0.205         1.1      -0.042
  HS02004870           JUNCTION    127.14  1280.48     0  02:15       0.169        1.27       0.001
  HS02004876           JUNCTION    120.91  1194.00     0  02:15       0.174        1.44       0.064
  HS02004881           JUNCTION     69.78  1257.01     0  02:15      0.0893        1.53       0.022
  HS02004901           JUNCTION    182.68   339.10     0  02:17       0.244        0.28       0.668
  WS02001211           JUNCTION      7.35   246.12     0  02:13       0.159        4.02       0.860
  WS02001212           JUNCTION      0.00   217.69     0  02:15           0        3.98       0.427
  WS02001213           JUNCTION      0.00   234.94     0  02:15           0        3.97       0.576
  WS02003059           JUNCTION      0.00   236.07     0  02:09           0        3.96       1.018
  WS02003060           JUNCTION     16.53  1458.22     0  02:18       0.357        12.7       0.237
  WS02003066           JUNCTION      0.00  1242.06     0  02:16           0         8.4       0.063
  WS02003067           JUNCTION      0.00  1241.01     0  02:15           0        8.41       0.126
  WS02003069           JUNCTION      0.32  1448.50     0  02:20     0.00691        12.6       0.253
  WS02003072           JUNCTION      0.00  1445.80     0  02:21           0        12.6       0.303
  WS02003073           JUNCTION      1.82  1446.35     0  02:21      0.0393        12.6       0.346
  WS02004138           JUNCTION      0.00   190.00     0  00:29           0        3.88       0.080
  WS02004139           JUNCTION      0.32   192.76     0  00:29     0.00693        3.89       0.716
  WS02004401           JUNCTION      0.00  1242.60     0  02:15           0        8.68       0.281
  WS02004402           JUNCTION      0.00  1242.41     0  02:15           0        8.65       0.259
  WS02004403           JUNCTION      0.00  1242.82     0  02:15           0        8.63       0.232
  WS02004404           JUNCTION      0.16  1243.42     0  02:15      0.0035        8.62       0.170
  WS02004405           JUNCTION      0.04  1243.49     0  02:15    0.000823         8.6       0.263
  WS02004406           JUNCTION      0.00  1243.55     0  02:15           0        8.58       0.416
  WS02004407           JUNCTION      0.00  1243.30     0  02:15           0        8.54       0.108
  WS02004409           JUNCTION      0.00  1241.13     0  02:15           0        8.53       0.236
  WS02004410           JUNCTION      0.00  1241.04     0  02:15           0        8.51       0.263
  WS02004411           JUNCTION      0.00  1241.13     0  02:15           0        8.49       0.266
  WS02004412           JUNCTION      0.00  1241.05     0  02:15           0        8.47       0.281
  WS02004413           JUNCTION      0.00  1241.00     0  02:15           0        8.45       0.403
  WS02006109           JUNCTION      1.23  1195.30     0  02:16      0.0266        8.64       0.260
  WS02006110           JUNCTION      0.00  1120.38     0  02:20           0        8.59       0.258
  WS02006111           JUNCTION      0.00  1120.28     0  02:20           0        8.56       0.045
  WS02006112           JUNCTION    148.49  1242.48     0  02:14       0.201        8.75       0.341
  WS02006113           JUNCTION      0.00  1120.40     0  02:20           0        8.57       0.153
  WS02006115           JUNCTION      0.00  1242.37     0  02:14           0        8.72       0.280
  WS02006116           JUNCTION      0.00  1242.55     0  02:14           0         8.7       0.240
  WS02006228           JUNCTION      0.00  1194.22     0  02:16           0        8.63       0.196
  WS02006229           JUNCTION      0.00  2116.76     0  02:16           0        9.64       0.151
  WS02006230           JUNCTION     10.28   933.95     0  02:16       0.222           6       0.261
  WS02006231           JUNCTION      0.00   461.81     0  03:10           0        5.49       0.210
  WS02006232           JUNCTION      0.00   460.65     0  03:10           0        5.48       0.330
  WS02006234           JUNCTION      0.00   457.81     0  03:10           0        5.47       0.195
  WS02006235           JUNCTION      0.00   452.58     0  03:10           0        5.49       0.200
  WS02006238           JUNCTION      0.00   418.15     0  03:25           0        5.41       0.159
  WS02006239           JUNCTION      0.00   418.13     0  03:25           0        5.41       0.253
  WS02006240           JUNCTION      0.00   424.88     0  02:04           0        5.42       0.308
  WS02006242           JUNCTION      0.00   442.67     0  02:04           0        5.44       0.342
  WS02006243           JUNCTION      0.00   481.26     0  02:03           0        5.27       0.245
  WS02006245           JUNCTION      0.00   497.69     0  02:03           0        5.28       0.279
  WS02006247           JUNCTION      0.00   509.51     0  02:03           0        5.29       0.170
  WS02006248           JUNCTION      0.00   531.09     0  02:02           0        5.44       0.166
  WS02006249           JUNCTION      0.00  1329.57     0  02:15           0        6.97       0.224
  WS02006251           JUNCTION      0.08  1329.35     0  02:15     0.00166        6.99       0.247
  WS02006252           JUNCTION      0.00   400.00     0  02:00           0        5.51      -0.001
  WS02006253           JUNCTION     18.40  1272.22     0  02:15      0.0217        1.55       0.777
  WS02006256           JUNCTION      0.00   300.00     0  00:00           0       0.273      -0.525
  WS02006280           JUNCTION      0.00  2115.14     0  02:16           0        4.66       0.019
  WS02006284           JUNCTION      0.10  2114.38     0  02:16     0.00207        4.66      -0.001
  WS02006287           JUNCTION      0.00  2112.65     0  02:16           0        4.66       0.019
  WSF200               JUNCTION      0.00  1242.90     0  02:16           0         8.4       0.067
  YS02001580           JUNCTION      0.00   133.38     0  02:12           0     0.00437       1.980
  YS02001583           JUNCTION      0.00   218.89     0  02:13           0      0.0149      -8.541
  YS02001586           JUNCTION    299.80   300.43     0  02:15       0.675       0.687       0.254
  YS02001590           JUNCTION      0.00   300.48     0  02:15           0       0.672       0.039
  YS02001593           JUNCTION      0.00   300.59     0  02:15           0       0.672       0.017
  YS02001596           JUNCTION      0.00   300.69     0  02:15           0       0.672       0.017
  YS02001600           JUNCTION      0.00   300.73     0  02:15           0       0.672      -0.067
  YS02001601           JUNCTION    599.44   899.13     0  02:15           1        1.68       0.063
  YS02001602           JUNCTION      0.00   551.93     0  02:12           0        1.39       0.047
  YS02001605           JUNCTION      0.00   552.51     0  02:12           0        1.36       0.060
  YS02001607           JUNCTION      0.00   553.06     0  02:12           0        1.35       0.165
  YS02001610           JUNCTION      0.00   544.94     0  02:12           0        1.35       0.192
  YS02001613           JUNCTION      0.00   552.87     0  02:12           0        1.33       0.151
  YS02001616           JUNCTION      0.00   566.39     0  02:12           0        1.33       0.048
  YS02001619           JUNCTION    530.73   954.19     0  02:12        1.06        2.38       0.010
  YS02001622           JUNCTION      0.00   966.54     0  02:12           0        2.38       0.013
  YS02001625           JUNCTION      0.00   950.40     0  02:13           0        2.38       0.694
  YS02001629           JUNCTION      0.00   952.85     0  02:13           0        2.34      -0.143
  YS02001633           JUNCTION    442.76  1353.61     0  02:14       0.713        3.06       0.123
  YS02001641           JUNCTION      0.00  1351.31     0  02:14           0        3.05       0.100
  YS02001644           JUNCTION    399.79  1748.08     0  02:14       0.614        3.66       0.100
  YS02001647           JUNCTION      0.00  1748.05     0  02:14           0        3.65       0.007
  YS02001649           JUNCTION      0.00  2005.19     0  02:14           0         4.2       0.012
  YS02001652           JUNCTION      0.00   403.63     0  02:14           0       0.542      -0.283
  YS02001655           JUNCTION      0.15   456.40     0  02:18     0.00332       0.543       0.105
  YS02001658           JUNCTION      0.00   486.00     0  02:18           0       0.539       0.008
  YS02001661           JUNCTION      0.00   389.86     0  02:15           0       0.539       0.004
  YS02001664           JUNCTION    390.92   390.92     0  02:15       0.539       0.539      -0.006
  YS02001745           JUNCTION    264.86   264.86     0  02:15       0.343       0.343       0.404
  YS02001748           JUNCTION      0.04   263.96     0  02:15    0.000972       0.343      -0.598
  YS02001751           JUNCTION      0.01   354.27     0  02:16    0.000238       0.349       0.406
  YS02001754           JUNCTION      0.26   356.25     0  02:17     0.00562       0.355      -0.530
  YS02001757           JUNCTION      0.00  2645.03     0  02:18           0        5.77       0.139
  YS02001759           JUNCTION    363.19   854.45     0  02:16       0.469        1.21      -0.019
  YS02001762           JUNCTION      0.00   538.36     0  02:16           0        0.74       0.018
  YS02001765           JUNCTION      0.00   537.47     0  02:16           0        0.74       0.002
  YS02001767           JUNCTION      0.54   534.90     0  02:16      0.0116        0.74       0.011
  YS02001770           JUNCTION    511.16   534.59     0  02:16        0.73       0.776      -0.023
  YS02001774           JUNCTION      0.00   301.01     0  02:15           0      0.0703       1.369
  YS02001779           JUNCTION      0.01   305.16     0  02:15    0.000108      0.0231      -2.107
  YS02001783           JUNCTION      0.00  1139.82     0  02:19           0        2.25       0.013
  YS02001784           JUNCTION      1.06  1140.92     0  02:19      0.0229        2.27       0.024
  YS02001786           JUNCTION      0.06  1140.85     0  02:19     0.00122        2.27       0.031
  YS02001788           JUNCTION      0.07  1140.99     0  02:17     0.00153        2.27       0.016
  YS02001790           JUNCTION      0.15  1157.92     0  02:19     0.00335        2.27       0.016
  YS02001791           JUNCTION      0.00  1264.86     0  02:18           0        2.27       0.004
  YS02001793           JUNCTION      0.00  1203.36     0  02:19           0        2.27       0.007
  YS02001882           JUNCTION      0.00    47.61     0  02:13           0      0.0128       5.202
  YS02001884           JUNCTION      0.00    93.77     0  02:13           0      0.0482       5.682
  YS02001887           JUNCTION    404.62   410.66     0  02:15       0.505       0.538       0.856
  YS02001890           JUNCTION      0.00   414.82     0  02:15           0       0.497       1.049
  YS02001895           JUNCTION      0.00   418.78     0  02:15           0       0.492       0.280
  YS02001898           JUNCTION      0.00   422.22     0  02:15           0       0.491       0.095
  YS02001901           JUNCTION      0.00   442.32     0  02:14           0       0.493       0.650
  YS02001904           JUNCTION      0.00   444.25     0  02:14           0       0.498       0.588
  YS02001907           JUNCTION      0.00  1017.68     0  02:18           0        1.61       1.132
  YS02001910           JUNCTION      0.00   734.40     0  02:18           0        1.12       0.653
  YS02001915           JUNCTION    435.88   734.02     0  02:18       0.691        1.15       0.161
  YS02001918           JUNCTION      0.00   349.25     0  02:18           0       0.475       0.033
  YS02001920           JUNCTION      2.87   348.91     0  02:18       0.062       0.458       0.230
  YS02001923           JUNCTION      0.04   389.90     0  02:14    0.000814       0.386      -0.086
  YS02001926           JUNCTION      0.05   424.09     0  02:16     0.00113       0.373       0.010
  YS02001929           JUNCTION    202.50   248.88     0  02:15       0.363       0.364       0.004
  YS02006553           JUNCTION      0.00   789.26     0  02:22           0        1.56       0.767
  YS02006556           JUNCTION      0.00   789.63     0  02:22           0        1.57       0.512
  YS02006558           JUNCTION    522.17  1139.94     0  02:19       0.729        2.28       0.157
  YS02006561           JUNCTION      0.00  1139.82     0  02:19           0        2.25       0.003
  YS02163301           JUNCTION      0.00   915.52     0  02:14           0        2.35       0.071
  YS02163601           JUNCTION      0.11  1353.18     0  02:14     0.00238        3.05       0.170
  YS02164001           JUNCTION      0.00  1352.31     0  02:14           0        3.05       0.075
  YSB1154              JUNCTION    211.11   211.11     0  02:15       0.302       0.303       0.492
  YSB1171              JUNCTION      0.00   399.50     0  02:15           0       0.538       1.198
  YSB1174              JUNCTION    188.65   188.65     0  02:15       0.228       0.229       0.580
  YSB6556              JUNCTION      0.00   211.00     0  02:15           0       0.304       0.410
  CC-1                 OUTFALL       0.00     0.00     0  00:00           0           0       0.000 ltr
  CC-2                 OUTFALL       0.00     0.00     0  00:00           0           0       0.000 ltr
  JK-1                 OUTFALL       0.00  1000.00     0  00:00           0        1.92       0.000
  JK-2                 OUTFALL       0.00  1000.00     0  02:10           0       0.996       0.000
  WSC                  OUTFALL       0.00  1444.90     0  02:22           0        12.6       0.000
  CC-storage           STORAGE       0.00  2647.49     0  02:18           0        7.99      -0.052
  JK-storage           STORAGE       0.00  1237.56     0  02:19           0        2.42     -23.903
  XR-storage           STORAGE     200.00   200.00     0  00:00        4.32        4.92       0.001
  
  
  **********************
  Node Surcharge Summary
  **********************
  
  Surcharging occurs when water rises above the top of the highest conduit.
  ---------------------------------------------------------------------
                                               Max. Height   Min. Depth
                                   Hours       Above Crown    Below Rim
  Node                 Type      Surcharged         Meters       Meters
  ---------------------------------------------------------------------
  HS02004478           JUNCTION        0.16          0.622        0.318
  HS02004479           JUNCTION        0.26          0.906        0.144
  HS02004480           JUNCTION        0.29          0.955        0.145
  HS02004770           JUNCTION        0.22          0.720        0.000
  HS02004777           JUNCTION        0.22          0.780        0.000
  HS02004785           JUNCTION        0.18          0.790        0.000
  HS02004788           JUNCTION        0.17          0.720        0.000
  HS02004792           JUNCTION        0.26          0.900        0.000
  HS02004799           JUNCTION        0.35          1.060        0.000
  HS02004802           JUNCTION        0.29          1.042        0.168
  HS02004807           JUNCTION        0.28          1.220        0.000
  HS02004817           JUNCTION        0.64          1.740        0.000
  HS02004824           JUNCTION        0.17          1.310        0.000
  HS02004830           JUNCTION        0.15          1.330        0.000
  HS02004837           JUNCTION        0.12          1.340        0.000
  HS02004842           JUNCTION        0.23          1.520        0.000
  HS02004848           JUNCTION        0.08          1.370        0.000
  HS02004852           JUNCTION        0.09          1.401        0.019
  HS02004856           JUNCTION        0.08          1.300        0.000
  HS02004862           JUNCTION        0.11          1.300        0.000
  HS02004870           JUNCTION        0.11          1.400        0.000
  HS02004876           JUNCTION        0.16          1.560        0.000
  HS02004881           JUNCTION        0.14          1.450        0.000
  HS02004901           JUNCTION        0.23          0.720        0.000
  WS02004401           JUNCTION        0.94          0.726        0.934
  WS02004402           JUNCTION        0.99          0.696        1.044
  WS02004403           JUNCTION        0.99          0.698        1.332
  WS02004404           JUNCTION        1.24          0.728        2.052
  WS02004405           JUNCTION        1.19          0.665        2.135
  WS02004406           JUNCTION        1.12          0.937        1.513
  WS02004409           JUNCTION        0.49          0.321        2.039
  WS02004410           JUNCTION        0.47          0.236        2.304
  WS02004411           JUNCTION        0.44          0.159        2.371
  WS02004412           JUNCTION        0.37          0.073        2.237
  WS02004413           JUNCTION        0.66          0.125        2.075
  WS02006109           JUNCTION        3.97          1.820        0.000
  WS02006110           JUNCTION        1.41          1.850        0.000
  WS02006111           JUNCTION        0.59          1.870        0.000
  WS02006112           JUNCTION        1.60          1.634        0.046
  WS02006113           JUNCTION        0.62          1.645        0.285
  WS02006115           JUNCTION        0.82          0.789        1.461
  WS02006116           JUNCTION        0.84          0.743        1.547
  WS02006228           JUNCTION        3.97          2.200        0.000
  WS02006229           JUNCTION        0.47          1.058        0.012
  WS02006230           JUNCTION        1.27          1.570        0.000
  WS02006231           JUNCTION        1.43          1.530        0.000
  WS02006232           JUNCTION        3.93          1.480        0.000
  WS02006234           JUNCTION        3.29          1.240        0.000
  WS02006235           JUNCTION        3.93          1.290        0.000
  WS02006238           JUNCTION        3.93          1.343        0.087
  WS02006239           JUNCTION        3.93          1.290        0.000
  WS02006240           JUNCTION        3.93          1.390        0.000
  WS02006242           JUNCTION        3.93          0.820        0.000
  WS02006243           JUNCTION        3.93          0.770        0.000
  WS02006245           JUNCTION        3.93          0.850        0.000
  WS02006247           JUNCTION        3.93          0.760        0.000
  WS02006248           JUNCTION        3.93          0.380        0.000
  WS02006249           JUNCTION        3.94          0.390        0.000
  WS02006251           JUNCTION        1.58          1.180        0.000
  WS02006252           JUNCTION        3.99          1.100        0.000
  WS02006253           JUNCTION        1.63          2.480        0.000
  WS02006256           JUNCTION        4.50          2.050        0.000
  WS02006280           JUNCTION        0.37          0.711        0.069
  WS02006284           JUNCTION        0.31          0.647        0.153
  WS02006287           JUNCTION        0.24          0.701        0.189
  YS02001580           JUNCTION        0.17          0.450        0.000
  YS02001583           JUNCTION        0.18          0.500        0.000
  YS02001586           JUNCTION        0.33          0.510        0.000
  YS02001590           JUNCTION        0.39          0.750        0.000
  YS02001593           JUNCTION        0.40          0.751        0.089
  YS02001596           JUNCTION        0.49          0.980        0.090
  YS02001600           JUNCTION        0.62          1.190        0.000
  YS02001601           JUNCTION        1.23          1.440        0.000
  YS02001602           JUNCTION        1.07          1.270        0.000
  YS02001605           JUNCTION        1.03          1.180        0.000
  YS02001607           JUNCTION        0.41          0.645        0.035
  YS02001610           JUNCTION        0.44          0.680        0.000
  YS02001613           JUNCTION        0.41          0.700        0.000
  YS02001616           JUNCTION        0.37          0.610        0.000
  YS02001619           JUNCTION        0.36          0.610        0.000
  YS02001622           JUNCTION        0.36          0.620        0.000
  YS02001625           JUNCTION        0.60          0.780        0.000
  YS02001629           JUNCTION        0.31          0.470        0.000
  YS02001633           JUNCTION        0.99          0.932        0.128
  YS02001641           JUNCTION        1.10          0.813        0.287
  YS02001644           JUNCTION        1.11          0.769        0.151
  YS02001647           JUNCTION        0.34          0.492        0.408
  YS02001649           JUNCTION        1.20          0.600        0.450
  YS02001652           JUNCTION        0.21          0.523        0.607
  YS02001655           JUNCTION        0.02          0.538        0.662
  YS02001754           JUNCTION        0.06          0.664        0.486
  YS02001757           JUNCTION        1.59          0.606        0.604
  YS02001759           JUNCTION        1.27          0.594        0.616
  YS02001762           JUNCTION        1.16          0.742        0.408
  YS02001765           JUNCTION        0.98          0.802        0.298
  YS02001767           JUNCTION        0.81          0.825        0.205
  YS02001770           JUNCTION        0.36          0.920        0.000
  YS02001774           JUNCTION        1.08          0.964        0.086
  YS02001779           JUNCTION        0.05          0.680        0.000
  YS02001783           JUNCTION        0.25          0.419        1.181
  YS02001784           JUNCTION        0.23          0.312        1.178
  YS02001786           JUNCTION        0.12          0.078        1.352
  YS02001882           JUNCTION        0.20          0.632        0.198
  YS02001884           JUNCTION        0.21          0.663        0.207
  YS02001887           JUNCTION        0.24          0.742        0.208
  YS02001890           JUNCTION        0.25          0.760        0.000
  YS02001895           JUNCTION        0.19          0.564        0.186
  YS02001898           JUNCTION        0.18          0.531        0.209
  YS02001901           JUNCTION        0.23          0.673        0.197
  YS02001904           JUNCTION        0.22          0.636        0.214
  YS02001907           JUNCTION        0.40          0.950        0.000
  YS02001910           JUNCTION        0.27          0.867        0.233
  YS02001915           JUNCTION        0.20          0.844        0.156
  YS02001918           JUNCTION        0.12          0.594        0.216
  YS02001920           JUNCTION        0.13          0.565        0.575
  YS02001923           JUNCTION        0.01          0.131        0.689
  YS02001926           JUNCTION        0.01          0.836        0.064
  YS02006553           JUNCTION        0.41          0.960        0.230
  YS02006556           JUNCTION        0.34          0.869        0.481
  YS02006558           JUNCTION        0.33          0.841        0.559
  YS02006561           JUNCTION        0.07          0.081        1.069
  YS02163301           JUNCTION        0.83          0.889        0.141
  YS02163601           JUNCTION        1.25          0.941        0.139
  YS02164001           JUNCTION        1.03          0.837        0.263
  YSB1154              JUNCTION        0.42          1.267        0.133
  YSB1171              JUNCTION        0.43          1.100        0.000
  YSB1174              JUNCTION        0.38          1.117        0.133
  YSB6556              JUNCTION        0.34          1.100        0.000
  
  
  *********************
  Node Flooding Summary
  *********************
  
  Flooding refers to all water that overflows a node, whether it ponds or not.
  --------------------------------------------------------------------------
                                                             Total   Maximum
                                 Maximum   Time of Max       Flood    Ponded
                        Hours       Rate    Occurrence      Volume     Depth
  Node                 Flooded       LPS   days hr:min    10^6 ltr    Meters
  --------------------------------------------------------------------------
  HS02004770              0.08    279.53      0  02:15       0.048     0.000
  HS02004777              0.01     50.73      0  02:13       0.000     0.000
  HS02004785              0.01    126.02      0  02:12       0.000     0.000
  HS02004788              0.01    382.66      0  02:12       0.002     0.000
  HS02004792              0.06    123.25      0  02:16       0.010     0.000
  HS02004799              0.01     32.78      0  02:13       0.000     0.000
  HS02004807              0.01     20.77      0  02:15       0.000     0.000
  HS02004817              0.01      8.17      0  02:15       0.000     0.000
  HS02004824              0.01      9.39      0  02:15       0.000     0.000
  HS02004830              0.01     19.06      0  02:15       0.000     0.000
  HS02004837              0.01     82.80      0  02:15       0.000     0.000
  HS02004842              0.01    131.87      0  02:15       0.001     0.000
  HS02004848              0.01    300.26      0  02:15       0.001     0.000
  HS02004856              0.01    222.53      0  02:15       0.000     0.000
  HS02004862              0.01    390.92      0  02:15       0.001     0.000
  HS02004870              0.01    294.64      0  02:15       0.000     0.000
  HS02004876              0.01    134.65      0  02:15       0.000     0.000
  HS02004881              0.01    143.10      0  02:15       0.000     0.000
  HS02004901              0.13    338.92      0  02:17       0.099     0.000
  WS02006109              0.13     93.82      0  02:16       0.022     0.000
  WS02006110              0.01     16.48      0  02:06       0.000     0.000
  WS02006111              0.01     82.78      0  02:06       0.000     0.000
  WS02006228              0.01      3.89      0  02:13       0.000     0.000
  WS02006230              0.32    480.76      0  02:16       0.306     0.000
  WS02006231              0.01    275.40      0  02:04       0.000     0.000
  WS02006232              0.10     33.35      0  02:04       0.000     0.000
  WS02006234              0.36     75.60      0  02:30       0.066     0.000
  WS02006235              0.01     16.20      0  02:04       0.000     0.000
  WS02006239              0.01     19.04      0  02:04       0.000     0.000
  WS02006240              0.01    162.67      0  02:04       0.000     0.000
  WS02006242              0.46    137.18      0  02:31       0.180     0.000
  WS02006243              0.01     47.95      0  02:04       0.000     0.000
  WS02006245              0.01     77.29      0  02:04       0.000     0.000
  WS02006247              0.01     47.53      0  02:04       0.000     0.000
  WS02006248              0.59    349.72      0  02:11       0.622     0.000
  WS02006249              1.34   1265.48      0  02:15       2.010     0.000
  WS02006251              0.01     27.33      0  02:15       0.000     0.000
  WS02006252              0.09    344.57      0  02:15       0.054     0.000
  WS02006253              0.01     79.35      0  02:15       0.000     0.000
  WS02006256              0.21    296.33      0  02:30       0.113     0.000
  YS02001580              0.01     86.70      0  02:13       0.000     0.000
  YS02001583              0.01    154.52      0  02:13       0.000     0.000
  YS02001586              0.01    103.94      0  02:13       0.002     0.000
  YS02001590              0.01      6.29      0  02:13       0.000     0.000
  YS02001600              0.01      2.59      0  02:13       0.000     0.000
  YS02001601              0.28    500.00      0  02:15       0.287     0.000
  YS02001602              0.20     61.85      0  02:21       0.031     0.000
  YS02001605              0.01      4.40      0  02:13       0.000     0.000
  YS02001610              0.13     66.41      0  02:19       0.020     0.000
  YS02001613              0.01     16.18      0  02:13       0.000     0.000
  YS02001616              0.01     22.09      0  02:13       0.000     0.000
  YS02001619              0.01     98.75      0  02:13       0.000     0.000
  YS02001622              0.01    187.28      0  02:12       0.000     0.000
  YS02001625              0.11    127.96      0  02:18       0.025     0.000
  YS02001629              0.01    273.58      0  02:13       0.001     0.000
  YS02001770              0.01    118.59      0  02:15       0.000     0.000
  YS02001779              0.01    236.78      0  02:15       0.001     0.000
  YS02001890              0.01      1.94      0  02:16       0.000     0.000
  YS02001907              0.06    299.22      0  02:18       0.033     0.000
  YSB1171                 0.01     64.45      0  02:13       0.001     0.000
  YSB6556                 0.01     14.41      0  02:13       0.000     0.000
  
  
  **********************
  Storage Volume Summary
  **********************
  
  --------------------------------------------------------------------------------------------------
                         Average     Avg  Evap Exfil       Maximum     Max    Time of Max    Maximum
                          Volume    Pcnt  Pcnt  Pcnt        Volume    Pcnt     Occurrence    Outflow
  Storage Unit           1000 m3    Full  Loss  Loss       1000 m3    Full    days hr:min        LPS
  --------------------------------------------------------------------------------------------------
  CC-storage               3.776      59     0     0         5.540      86       0  02:56     400.00
  JK-storage               0.010       3     0     0         0.150      52       0  00:00    2000.00
  XR-storage               0.951      66     0     0         1.039      72       0  06:00     190.00
  
  
  ***********************
  Outfall Loading Summary
  ***********************
  
  -----------------------------------------------------------
                         Flow       Avg       Max       Total
                         Freq      Flow      Flow      Volume
  Outfall Node           Pcnt       LPS       LPS    10^6 ltr
  -----------------------------------------------------------
  CC-1                   0.00      0.00      0.00       0.000
  CC-2                   0.00      0.00      0.00       0.000
  JK-1                  87.78    144.26   1000.00       1.918
  JK-2                  25.31    295.24   1000.00       0.996
  WSC                   99.96    719.37   1444.90      12.552
  -----------------------------------------------------------
  System                42.61   1158.87   1444.90      15.466
  
  
  ********************
  Link Flow Summary
  ********************
  
  -----------------------------------------------------------------------------
                                 Maximum  Time of Max   Maximum    Max/    Max/
                                  |Flow|   Occurrence   |Veloc|    Full    Full
  Link                 Type          LPS  days hr:min     m/sec    Flow   Depth
  -----------------------------------------------------------------------------
  1                    CONDUIT   1444.90     0  02:22      3.66    0.50    0.50
  HS02004478WS02006287 CONDUIT   2112.65     0  02:16      2.57    0.59    1.00
  HS02004479HS02004480 CONDUIT    404.75     0  02:14      0.58    0.39    1.00
  HS02004480HS02004478 CONDUIT   2125.69     0  02:13      3.04    8.95    1.00
  HS02004770HS02004777 CONDUIT    776.81     0  02:12      1.11    1.42    1.00
  HS02004777HS02004785 CONDUIT    782.62     0  02:12      1.18    0.96    1.00
  HS02004785HS02004788 CONDUIT    739.90     0  02:12      1.37    5.58    1.00
  HS02004788HS02004792 CONDUIT    826.73     0  02:13      1.48    0.55    1.00
  HS02004792HS02004799 CONDUIT   1579.23     0  02:13      2.26    0.97    1.00
  HS02004799HS02004480 CONDUIT   1747.49     0  02:13      2.50    2.21    1.00
  HS02004802HS02004478 CONDUIT    364.83     0  02:30      0.73    0.32    1.00
  HS02004807HS02004802 CONDUIT    341.75     0  02:32      0.64    0.65    1.00
  HS02004817HS02004807 CONDUIT    446.46     0  02:13      0.64    0.26    1.00
  HS02004817HS02004824 CONDUIT    446.07     0  02:13      0.64    0.20    1.00
  HS02004824HS02004830 CONDUIT    671.69     0  02:13      0.98    0.88    1.00
  HS02004830HS02004837 CONDUIT    687.00     0  02:13      1.07    0.68    1.00
  HS02004837HS02004842 CONDUIT    868.39     0  02:14      1.24    0.52    1.00
  HS02004842HS02004848 CONDUIT    867.34     0  02:14      1.38    0.51    1.00
  HS02004848HS02004852 CONDUIT   1019.07     0  02:14      1.62    1.15    1.00
  HS02004852HS02004856 CONDUIT    978.68     0  02:14      1.47    1.12    1.00
  HS02004856HS02004862 CONDUIT   1072.54     0  02:15      1.70    1.07    1.00
  HS02004862HS02004870 CONDUIT   1156.95     0  02:15      1.87    1.25    1.00
  HS02004870HS02004876 CONDUIT   1080.54     0  02:15      1.71    0.72    1.00
  HS02004876HS02004881 CONDUIT   1194.31     0  02:15      2.58   12.70    1.00
  HS02004881HS02006253 CONDUIT   1256.87     0  02:15      2.42    0.25    1.00
  HS02004901HS02004770 CONDUIT    194.27     0  02:17      0.28    0.73    1.00
  WS02001211WS02001212 CONDUIT    217.69     0  02:15      0.54    0.17    0.68
  WS02001212WS02001213 CONDUIT    234.94     0  02:15      1.03    0.36    0.55
  WS02001213WS02003059 CONDUIT    220.40     0  02:38      0.47    0.36    0.88
  WS02003059WS02003060 CONDUIT    226.49     0  02:40      0.67    0.15    0.80
  WS02003060WS02003069 CONDUIT   1448.18     0  02:20      2.07    0.57    0.59
  WS02003066WSF200     CONDUIT   1242.90     0  02:16      3.40    0.21    0.37
  WS02003067WS02003066 CONDUIT   1242.06     0  02:16      1.96    0.40    0.55
  WS02003069WS02003072 CONDUIT   1445.80     0  02:21      1.87    0.70    0.65
  WS02003072WS02003073 CONDUIT   1444.53     0  02:21      2.02    3.12    0.60
  WS02004138WS02004139 CONDUIT    192.44     0  00:29      2.15    0.04    0.41
  WS02004139WS02001211 CONDUIT    238.77     0  02:13      0.54    0.30    0.59
  WS02004401WS02004402 CONDUIT   1242.41     0  02:15      1.58    1.49    1.00
  WS02004402WS02004403 CONDUIT   1242.82     0  02:15      1.58    1.79    1.00
  WS02004403WS02004404 CONDUIT   1243.26     0  02:15      1.58    0.90    1.00
  WS02004404WS02004405 CONDUIT   1243.45     0  02:15      1.58   12.18    1.00
  WS02004405WS02004406 CONDUIT   1243.55     0  02:15      1.58    2.45    1.00
  WS02004406WS02004407 CONDUIT   1243.30     0  02:15      1.85    0.56    0.91
  WS02004407WS02004409 CONDUIT   1241.13     0  02:15      2.03    0.44    0.91
  WS02004409WS02004410 CONDUIT   1241.04     0  02:15      1.58    1.61    1.00
  WS02004410WS02004411 CONDUIT   1241.13     0  02:15      1.58    1.70    1.00
  WS02004411WS02004412 CONDUIT   1241.05     0  02:15      1.58    1.76    1.00
  WS02004412WS02004413 CONDUIT   1241.00     0  02:15      1.58    0.83    1.00
  WS02004413WS02003067 CONDUIT   1241.01     0  02:15      1.94    0.53    0.76
  WS02006109WS02006110 CONDUIT   1120.38     0  02:20      2.23    2.15    1.00
  WS02006110WS02006113 CONDUIT   1120.40     0  02:20      2.23    1.02    1.00
  WS02006111WS02006112 CONDUIT   1120.71     0  02:20      2.23    0.53    1.00
  WS02006112WS02006115 CONDUIT   1242.37     0  02:14      1.58    0.73    1.00
  WS02006113WS02006111 CONDUIT   1120.28     0  02:20      2.70    1.34    1.00
  WS02006115WS02006116 CONDUIT   1242.55     0  02:14      1.58    1.59    1.00
  WS02006116WS02004401 CONDUIT   1242.60     0  02:15      1.58    1.71    1.00
  WS02006228WS02006109 CONDUIT   1194.07     0  02:16      2.38    5.22    1.00
  WS02006229WS02006228 CONDUIT   1194.22     0  02:16      2.38    3.96    1.00
  WS02006230WS02006229 CONDUIT    923.67     0  02:16      2.40   20.56    1.00
  WS02006231WS02006230 CONDUIT    462.65     0  03:10      1.24    7.02    1.00
  WS02006232WS02006231 CONDUIT    461.81     0  03:10      1.20    0.97    1.00
  WS02006234WS02006232 CONDUIT    460.65     0  03:10      1.39    0.93    1.00
  WS02006235WS02006234 CONDUIT    457.81     0  03:10      1.19    4.83    1.00
  WS02006238WS02006235 CONDUIT    418.19     0  03:25      1.46    0.93    1.00
  WS02006239WS02006238 CONDUIT    418.15     0  03:25      1.09    1.34    1.00
  WS02006240WS02006239 CONDUIT    418.13     0  03:25      1.09    1.32    1.00
  WS02006242WS02006240 CONDUIT    424.88     0  02:04      1.11    1.69    1.00
  WS02006243WS02006242 CONDUIT    442.67     0  02:04      1.29    0.95    1.00
  WS02006245WS02006243 CONDUIT    481.26     0  02:03      1.46    1.42    1.00
  WS02006247WS02006245 CONDUIT    497.69     0  02:03      1.50    3.95    1.00
  WS02006248WS02006247 CONDUIT    509.51     0  02:03      1.37    1.11    1.00
  WS02006249WS02006248 CONDUIT    531.09     0  02:02      1.47    2.91    1.00
  WS02006251WS02006249 CONDUIT   1329.57     0  02:15      3.45    3.83    1.00
  WS02006252WS02006251 CONDUIT    409.34     0  02:30      3.26    1.50    1.00
  WS02006253WS02006251 CONDUIT   1273.06     0  02:15      3.31    3.82    1.00
  WS02006256WS02006235 CONDUIT    288.92     0  00:00      4.23    3.06    1.00
  WS02006280WS02006229 CONDUIT   2116.76     0  02:16      4.28    0.45    1.00
  WS02006284WS02006280 CONDUIT   2115.14     0  02:16      2.96    0.89    1.00
  WS02006287WS02006284 CONDUIT   2114.28     0  02:16      2.72    0.98    1.00
  WSF200WS02003060     CONDUIT   1249.87     0  02:16      2.58    0.28    0.49
  YS02001580YS02001583 CONDUIT    133.38     0  02:12      0.81    0.52    1.00
  YS02001583YS02001586 CONDUIT    177.94     0  02:13      0.81    0.27    1.00
  YS02001586YS02001590 CONDUIT    300.48     0  02:15      1.25    0.53    1.00
  YS02001590YS02001593 CONDUIT    300.59     0  02:15      1.06    1.89    1.00
  YS02001593YS02001596 CONDUIT    300.69     0  02:15      1.59    0.47    1.00
  YS02001596YS02001600 CONDUIT    300.73     0  02:15      1.06    0.58    1.00
  YS02001600YS02001601 CONDUIT    300.71     0  02:15      1.06    0.52    1.00
  YS02001601YS02001602 CONDUIT    551.93     0  02:12      1.95    1.99    1.00
  YS02001602YS02001605 CONDUIT    552.51     0  02:12      1.95   11.69    1.00
  YS02001605YS02001607 CONDUIT    553.06     0  02:12      1.96    3.03    1.00
  YS02001607YS02001610 CONDUIT    544.94     0  02:12      0.69    0.52    1.00
  YS02001610YS02001613 CONDUIT    552.87     0  02:12      0.70    0.64    1.00
  YS02001613YS02001616 CONDUIT    566.39     0  02:12      0.72    0.49    1.00
  YS02001616YS02001619 CONDUIT    521.64     0  02:12      0.69    0.91    1.00
  YS02001619YS02001622 CONDUIT    966.54     0  02:12      1.24    1.42    1.00
  YS02001622YS02001625 CONDUIT    950.40     0  02:13      1.21    0.51    1.00
  YS02001625YS02001629 CONDUIT    952.85     0  02:13      1.21    0.45    1.00
  YS02001629YS02163301 CONDUIT    915.52     0  02:14      1.17    1.13    1.00
  YS02001633YS02163601 CONDUIT   1353.07     0  02:14      1.72    1.42    1.00
  YS02001641YS02001644 CONDUIT   1351.83     0  02:14      1.72    4.37    1.00
  YS02001644YS02001647 CONDUIT   1748.05     0  02:14      2.28    1.03    1.00
  YS02001647YS02001649 CONDUIT   1757.63     0  02:15      2.33    0.93    1.00
  YS02001649YS02001757 CONDUIT   1983.89     0  02:15      2.53    1.20    1.00
  YS02001652YS02001649 CONDUIT    372.69     0  02:14      0.76    0.18    1.00
  YS02001655YS02001652 CONDUIT    403.63     0  02:14      1.48    0.20    1.00
  YS02001658YS02001655 CONDUIT    456.24     0  02:18      1.99    0.19    0.89
  YS02001661YS02001658 CONDUIT    486.00     0  02:18      2.28    0.19    0.54
  YS02001664YS02001661 CONDUIT    389.86     0  02:15      2.11    0.12    0.35
  YS02001745YS02001748 CONDUIT    263.91     0  02:15      2.13    0.10    0.37
  YS02001748YS02001751 CONDUIT    278.86     0  02:16      1.75    0.14    0.73
  YS02001751YS02001754 CONDUIT    355.99     0  02:17      1.52    0.17    0.92
  YS02001754YS02001757 CONDUIT    251.79     0  02:18      0.56    0.10    1.00
  YS02001757CaochengTiaoxuchi CONDUIT   2647.49     0  02:18      3.37    1.15    1.00
  YS02001759YS02001757 CONDUIT    855.68     0  02:16      1.09    0.61    1.00
  YS02001762YS02001759 CONDUIT    539.55     0  02:16      0.69    0.62    1.00
  YS02001765YS02001762 CONDUIT    538.36     0  02:16      0.74    0.50    1.00
  YS02001767YS02001765 CONDUIT    537.47     0  02:16      0.85    0.68    1.00
  YS02001770YS02001767 CONDUIT    534.36     0  02:16      0.86    2.12    1.00
  YS02001774YS02001770 CONDUIT    301.01     0  02:15      0.38    0.19    1.00
  YS02001779YS02001774 CONDUIT    305.16     0  02:15      0.40    0.15    1.00
  YS02001783YS02001784 CONDUIT   1139.86     0  02:19      2.27    1.57    1.00
  YS02001784YS02001785 CONDUIT   1140.79     0  02:19      2.27    2.65    1.00
  YS02001786YS02001788 CONDUIT   1140.92     0  02:17      2.45    2.20    0.88
  YS02001788YS02001790 CONDUIT   1157.77     0  02:19      2.70    0.85    0.83
  YS02001790YS02001791 CONDUIT   1264.86     0  02:18      3.41    1.38    0.69
  YS02001791YS02001793 CONDUIT   1203.36     0  02:19      6.60    0.52    0.42
  YS02001793JiankangQianchi CONDUIT   1237.56     0  02:19     23.64    0.10    0.58
  YS02001882YS02001884 CONDUIT     47.61     0  02:13      0.06    0.05    1.00
  YS02001884YS02001887 CONDUIT     93.77     0  02:13      0.12    0.12    1.00
  YS02001887YS02001890 CONDUIT    414.82     0  02:15      0.53    0.71    1.00
  YS02001890YS02001895 CONDUIT    418.78     0  02:15      0.53    0.20    1.00
  YS02001895YS02001898 CONDUIT    422.22     0  02:15      0.54    0.73    1.00
  YS02001898YS02001901 CONDUIT    442.32     0  02:14      0.56    0.29    1.00
  YS02001901YS02001904 CONDUIT    444.25     0  02:14      0.57    0.69    1.00
  YS02001904YS02001907 CONDUIT    446.90     0  02:14      0.57    0.16    1.00
  YS02001907YS02006553 CONDUIT    789.26     0  02:22      0.88    0.93    1.00
  YS02001910YS02001907 CONDUIT    734.24     0  02:18      0.93    0.41    1.00
  YS02001915YS02001910 CONDUIT    734.40     0  02:18      0.94    0.36    1.00
  YS02001918YS02001915 CONDUIT    354.21     0  02:24      0.48    0.20    1.00
  YS02001920YS02001918 CONDUIT    349.25     0  02:18      0.64    0.34    1.00
  YS02001923YS02001920 CONDUIT    346.04     0  02:18      0.73    0.16    1.00
  YS02001926YS02001923 CONDUIT    337.28     0  02:17      0.96    0.48    1.00
  YS02001929YS02001926 CONDUIT    395.18     0  02:17      1.12    0.19    0.89
  YS02006553YS02006556 CONDUIT    789.63     0  02:22      1.01    0.68    1.00
  YS02006556YS02006558 CONDUIT    791.74     0  02:22      1.01    0.63    1.00
  YS02006558YS02006561 CONDUIT   1139.82     0  02:19      4.03    2.52    1.00
  YS02006561YS02001783 CONDUIT   1139.82     0  02:19      2.29    0.59    1.00
  YS02163301YS02001633 CONDUIT    915.20     0  02:14      1.17    0.86    1.00
  YS02163601YS02164001 CONDUIT   1352.31     0  02:14      1.72    1.20    1.00
  YS02164001YS02001641 CONDUIT   1351.31     0  02:14      1.72    1.85    1.00
  YSB1154YSB6556       CONDUIT    211.00     0  02:15      0.55    0.38    1.00
  YSB1171HS02004479    CONDUIT    399.98     0  02:15      0.80    0.27    1.00
  YSB1174YSB1171       CONDUIT    188.29     0  02:14      0.49    0.29    1.00
  YSB6556YSB1171       CONDUIT    211.52     0  02:15      0.55    0.22    1.00
  CC-R1                PUMP         0.00     0  00:00              0.00
  CC-R2                PUMP         0.00     0  00:00              0.00
  CC-S1                PUMP       200.00     0  02:00              1.00
  CC-S2                PUMP       200.00     0  02:00              1.00
  JK-R1                PUMP      1000.00     0  00:00              1.00
  JK-R2                PUMP      1000.00     0  02:10              1.00
  JK-S                 PUMP       300.00     0  00:00              1.00
  XR-1                 PUMP        95.00     0  00:10              1.00
  XR-2                 PUMP        95.00     0  00:29              1.00
  XR-3                 PUMP         0.00     0  00:00              0.00
  XR-4                 PUMP         0.00     0  00:00              0.00
  
  
  ***************************
  Flow Classification Summary
  ***************************
  
  -------------------------------------------------------------------------------------
                      Adjusted    ---------- Fraction of Time in Flow Class ---------- 
                       /Actual         Up    Down  Sub   Sup   Up    Down  Norm  Inlet 
  Conduit               Length    Dry  Dry   Dry   Crit  Crit  Crit  Crit  Ltd   Ctrl  
  -------------------------------------------------------------------------------------
  1                       1.00   0.00  0.00  0.00  0.00  1.00  0.00  0.00  0.39  0.00
  HS02004478WS02006287    1.00   0.07  0.00  0.00  0.68  0.25  0.00  0.00  0.54  0.00
  HS02004479HS02004480    1.00   0.02  0.00  0.00  0.98  0.00  0.00  0.00  0.18  0.00
  HS02004480HS02004478    1.00   0.06  0.00  0.00  0.58  0.00  0.00  0.36  0.00  0.00
  HS02004770HS02004777    1.00   0.00  0.06  0.00  0.94  0.00  0.00  0.00  0.07  0.00
  HS02004777HS02004785    1.00   0.00  0.00  0.00  1.00  0.00  0.00  0.00  0.22  0.00
  HS02004785HS02004788    1.00   0.00  0.00  0.00  1.00  0.00  0.00  0.00  0.00  0.00
  HS02004788HS02004792    1.00   0.00  0.00  0.00  0.99  0.01  0.00  0.00  0.93  0.00
  HS02004792HS02004799    1.00   0.00  0.00  0.00  0.99  0.01  0.00  0.00  0.90  0.00
  HS02004799HS02004480    1.00   0.00  0.02  0.00  0.92  0.00  0.05  0.00  0.00  0.00
  HS02004802HS02004478    1.00   0.06  0.00  0.00  0.94  0.00  0.00  0.00  0.03  0.00
  HS02004807HS02004802    1.00   0.06  0.00  0.00  0.94  0.00  0.00  0.01  0.01  0.00
  HS02004817HS02004807    1.00   0.00  0.06  0.00  0.94  0.00  0.00  0.00  0.01  0.00
  HS02004817HS02004824    1.00   0.00  0.00  0.00  1.00  0.00  0.00  0.00  0.87  0.00
  HS02004824HS02004830    1.00   0.00  0.00  0.00  1.00  0.00  0.00  0.00  0.01  0.00
  HS02004830HS02004837    1.00   0.00  0.00  0.00  1.00  0.00  0.00  0.00  0.91  0.00
  HS02004837HS02004842    1.00   0.00  0.00  0.00  0.99  0.01  0.00  0.00  0.14  0.00
  HS02004842HS02004848    1.00   0.00  0.06  0.00  0.94  0.00  0.00  0.00  0.51  0.00
  HS02004848HS02004852    1.00   0.06  0.00  0.00  0.94  0.00  0.00  0.00  0.60  0.00
  HS02004852HS02004856    1.00   0.06  0.01  0.00  0.94  0.00  0.00  0.00  0.66  0.00
  HS02004856HS02004862    1.00   0.00  0.10  0.00  0.90  0.00  0.00  0.00  0.66  0.00
  HS02004862HS02004870    1.00   0.00  0.00  0.00  1.00  0.00  0.00  0.00  0.07  0.00
  HS02004870HS02004876    1.00   0.01  0.00  0.00  0.99  0.00  0.00  0.00  0.87  0.00
  HS02004876HS02004881    1.00   0.01  0.00  0.00  0.79  0.20  0.00  0.00  0.00  0.00
  HS02004881HS02006253    1.00   0.03  0.00  0.00  0.85  0.00  0.00  0.12  0.62  0.00
  HS02004901HS02004770    1.00   0.05  0.00  0.00  0.94  0.00  0.00  0.00  0.02  0.00
  WS02001211WS02001212    1.00   0.00  0.02  0.00  0.98  0.00  0.00  0.00  0.00  0.00
  WS02001212WS02001213    1.00   0.02  0.00  0.00  0.83  0.00  0.16  0.00  0.00  0.00
  WS02001213WS02003059    1.00   0.00  0.01  0.00  0.99  0.00  0.00  0.00  0.00  0.00
  WS02003059WS02003060    1.00   0.00  0.00  0.00  1.00  0.00  0.00  0.00  0.04  0.00
  WS02003060WS02003069    1.00   0.00  0.00  0.00  0.98  0.02  0.00  0.00  0.28  0.00
  WS02003066WSF200        1.00   0.15  0.00  0.00  0.00  0.85  0.00  0.00  0.37  0.00
  WS02003067WS02003066    1.00   0.14  0.01  0.00  0.85  0.00  0.00  0.00  0.00  0.00
  WS02003069WS02003072    1.00   0.00  0.00  0.00  1.00  0.00  0.00  0.00  0.32  0.00
  WS02003072WS02003073    1.00   0.00  0.00  0.00  0.00  0.00  0.00  1.00  0.00  0.00
  WS02004138WS02004139    1.00   0.01  0.00  0.00  0.98  0.00  0.00  0.00  0.97  0.00
  WS02004139WS02001211    1.00   0.00  0.01  0.00  0.99  0.00  0.00  0.00  0.01  0.00
  WS02004401WS02004402    1.00   0.03  0.00  0.00  0.97  0.00  0.00  0.00  0.04  0.00
  WS02004402WS02004403    1.00   0.03  0.00  0.00  0.97  0.00  0.00  0.00  0.00  0.00
  WS02004403WS02004404    1.00   0.00  0.03  0.00  0.97  0.00  0.00  0.00  0.04  0.00
  WS02004404WS02004405    1.00   0.00  0.00  0.00  1.00  0.00  0.00  0.00  0.00  0.00
  WS02004405WS02004406    1.00   0.00  0.00  0.00  1.00  0.00  0.00  0.00  0.04  0.00
  WS02004406WS02004407    1.00   0.00  0.10  0.00  0.90  0.00  0.00  0.00  0.00  0.00
  WS02004407WS02004409    1.00   0.10  0.00  0.00  0.89  0.01  0.00  0.00  0.61  0.00
  WS02004409WS02004410    1.00   0.10  0.00  0.00  0.90  0.00  0.00  0.00  0.00  0.00
  WS02004410WS02004411    1.00   0.10  0.00  0.00  0.90  0.00  0.00  0.00  0.00  0.00
  WS02004411WS02004412    1.00   0.10  0.00  0.00  0.90  0.00  0.00  0.00  0.00  0.00
  WS02004412WS02004413    1.00   0.11  0.00  0.00  0.89  0.01  0.00  0.00  0.01  0.00
  WS02004413WS02003067    1.00   0.11  0.03  0.00  0.00  0.00  0.86  0.00  0.00  0.00
  WS02006109WS02006110    1.00   0.00  0.01  0.00  0.99  0.00  0.00  0.00  0.00  0.00
  WS02006110WS02006113    1.00   0.01  0.01  0.00  0.99  0.00  0.00  0.00  0.00  0.00
  WS02006111WS02006112    1.00   0.02  0.00  0.00  0.98  0.00  0.00  0.00  0.77  0.00
  WS02006112WS02006115    1.00   0.02  0.01  0.00  0.97  0.00  0.00  0.00  0.00  0.00
  WS02006113WS02006111    1.00   0.01  0.00  0.00  0.21  0.77  0.00  0.00  0.14  0.00
  WS02006115WS02006116    1.00   0.02  0.00  0.00  0.94  0.00  0.00  0.03  0.01  0.00
  WS02006116WS02004401    1.00   0.02  0.00  0.00  0.98  0.00  0.00  0.00  0.01  0.00
  WS02006228WS02006109    1.00   0.00  0.00  0.00  1.00  0.00  0.00  0.00  0.00  0.00
  WS02006229WS02006228    1.00   0.00  0.00  0.00  0.99  0.00  0.00  0.01  0.00  0.00
  WS02006230WS02006229    1.00   0.00  0.00  0.00  0.99  0.00  0.00  0.01  0.02  0.00
  WS02006231WS02006230    1.00   0.00  0.00  0.00  0.88  0.00  0.11  0.00  0.00  0.00
  WS02006232WS02006231    1.00   0.00  0.00  0.00  0.99  0.00  0.00  0.00  0.00  0.00
  WS02006234WS02006232    1.00   0.00  0.00  0.00  1.00  0.00  0.00  0.00  0.20  0.00
  WS02006235WS02006234    1.00   0.00  0.00  0.00  0.90  0.00  0.10  0.00  0.00  0.00
  WS02006238WS02006235    1.00   0.00  0.00  0.00  1.00  0.00  0.00  0.00  0.00  0.00
  WS02006239WS02006238    1.00   0.00  0.00  0.00  1.00  0.00  0.00  0.00  0.10  0.00
  WS02006240WS02006239    1.00   0.00  0.00  0.00  0.88  0.00  0.00  0.12  0.01  0.00
  WS02006242WS02006240    1.00   0.00  0.00  0.00  1.00  0.00  0.00  0.00  0.00  0.00
  WS02006243WS02006242    1.00   0.01  0.00  0.00  0.99  0.00  0.00  0.00  0.30  0.00
  WS02006245WS02006243    1.00   0.01  0.01  0.00  0.87  0.00  0.00  0.11  0.00  0.00
  WS02006247WS02006245    1.00   0.02  0.00  0.00  0.95  0.00  0.00  0.04  0.00  0.00
  WS02006248WS02006247    1.00   0.01  0.00  0.00  0.96  0.00  0.00  0.02  0.16  0.00
  WS02006249WS02006248    1.00   0.00  0.01  0.00  0.87  0.00  0.12  0.00  0.00  0.00
  WS02006251WS02006249    1.00   0.00  0.00  0.00  1.00  0.00  0.00  0.00  0.29  0.00
  WS02006252WS02006251    1.00   0.14  0.00  0.00  0.37  0.00  0.48  0.00  0.00  0.00
  WS02006253WS02006251    1.00   0.03  0.02  0.00  0.94  0.00  0.01  0.00  0.00  0.00
  WS02006256WS02006235    1.00   0.00  0.00  0.00  1.00  0.00  0.00  0.00  0.00  0.00
  WS02006280WS02006229    1.00   0.06  0.00  0.00  0.15  0.04  0.00  0.74  0.01  0.00
  WS02006284WS02006280    1.00   0.06  0.00  0.00  0.12  0.01  0.00  0.81  0.00  0.00
  WS02006287WS02006284    1.00   0.05  0.03  0.00  0.54  0.39  0.00  0.00  0.63  0.00
  WSF200WS02003060        1.00   0.00  0.15  0.00  0.02  0.83  0.00  0.00  0.01  0.00
  YS02001580YS02001583    1.00   0.19  0.52  0.00  0.29  0.00  0.00  0.00  0.57  0.00
  YS02001583YS02001586    1.00   0.22  0.43  0.00  0.35  0.00  0.00  0.00  0.57  0.00
  YS02001586YS02001590    1.00   0.06  0.00  0.00  0.53  0.04  0.00  0.37  0.44  0.00
  YS02001590YS02001593    1.00   0.06  0.01  0.00  0.13  0.00  0.80  0.00  0.00  0.00
  YS02001593YS02001596    1.00   0.06  0.00  0.00  0.16  0.01  0.00  0.76  0.03  0.00
  YS02001596YS02001600    1.00   0.06  0.00  0.00  0.41  0.01  0.00  0.51  0.15  0.00
  YS02001600YS02001601    1.00   0.06  0.00  0.00  0.94  0.00  0.00  0.00  0.42  0.00
  YS02001601YS02001602    1.00   0.05  0.01  0.00  0.94  0.00  0.00  0.00  0.00  0.00
  YS02001602YS02001605    1.00   0.06  0.00  0.00  0.94  0.00  0.00  0.00  0.00  0.00
  YS02001605YS02001607    1.00   0.06  0.00  0.00  0.94  0.00  0.00  0.00  0.01  0.00
  YS02001607YS02001610    1.00   0.06  0.01  0.00  0.93  0.00  0.00  0.00  0.04  0.00
  YS02001610YS02001613    1.00   0.06  0.00  0.00  0.94  0.00  0.00  0.00  0.04  0.00
  YS02001613YS02001616    1.00   0.06  0.00  0.00  0.94  0.00  0.00  0.00  0.02  0.00
  YS02001616YS02001619    1.00   0.05  0.00  0.00  0.95  0.00  0.00  0.00  0.00  0.00
  YS02001619YS02001622    1.00   0.05  0.00  0.00  0.95  0.00  0.00  0.00  0.07  0.00
  YS02001622YS02001625    1.00   0.06  0.00  0.00  0.94  0.00  0.00  0.00  0.12  0.00
  YS02001625YS02001629    1.00   0.06  0.05  0.00  0.47  0.00  0.42  0.00  0.00  0.00
  YS02001629YS02163301    1.00   0.08  0.01  0.00  0.91  0.00  0.00  0.00  0.00  0.00
  YS02001633YS02163601    1.00   0.00  0.01  0.00  0.99  0.00  0.00  0.00  0.23  0.00
  YS02001641YS02001644    1.00   0.00  0.01  0.00  0.99  0.00  0.00  0.00  0.00  0.00
  YS02001644YS02001647    1.00   0.00  0.10  0.00  0.90  0.00  0.00  0.00  0.00  0.00
  YS02001647YS02001649    1.00   0.00  0.10  0.00  0.90  0.00  0.00  0.00  0.14  0.00
  YS02001649YS02001757    1.00   0.00  0.00  0.00  0.96  0.04  0.00  0.00  0.33  0.00
  YS02001652YS02001649    1.00   0.00  0.00  0.00  0.97  0.03  0.00  0.00  0.36  0.00
  YS02001655YS02001652    1.00   0.00  0.00  0.00  0.63  0.02  0.00  0.36  0.10  0.00
  YS02001658YS02001655    1.00   0.00  0.07  0.00  0.80  0.13  0.00  0.00  0.38  0.00
  YS02001661YS02001658    1.00   0.07  0.00  0.00  0.74  0.19  0.00  0.00  0.64  0.00
  YS02001664YS02001661    1.00   0.05  0.00  0.00  0.78  0.16  0.00  0.00  0.83  0.00
  YS02001745YS02001748    1.00   0.00  0.00  0.00  0.38  0.01  0.00  0.62  0.31  0.00
  YS02001748YS02001751    1.00   0.00  0.00  0.00  0.88  0.12  0.00  0.00  0.55  0.00
  YS02001751YS02001754    1.00   0.00  0.00  0.00  0.57  0.01  0.00  0.42  0.10  0.00
  YS02001754YS02001757    1.00   0.00  0.00  0.00  1.00  0.00  0.00  0.00  0.45  0.00
  YS02001757CaochengTiaoxuchi    1.00   0.00  0.00  0.00  1.00  0.00  0.00  0.00  0.13  0.00
  YS02001759YS02001757    1.00   0.00  0.00  0.00  1.00  0.00  0.00  0.00  0.28  0.00
  YS02001762YS02001759    1.00   0.00  0.00  0.00  1.00  0.00  0.00  0.00  0.10  0.00
  YS02001765YS02001762    1.00   0.00  0.00  0.00  1.00  0.00  0.00  0.00  0.31  0.00
  YS02001767YS02001765    1.00   0.00  0.00  0.00  1.00  0.00  0.00  0.00  0.01  0.00
  YS02001770YS02001767    1.00   0.00  0.00  0.00  1.00  0.00  0.00  0.00  0.00  0.00
  YS02001774YS02001770    1.00   0.00  0.06  0.00  0.94  0.00  0.00  0.00  0.08  0.00
  YS02001779YS02001774    1.00   0.00  0.00  0.00  1.00  0.00  0.00  0.00  0.42  0.00
  YS02001783YS02001784    1.00   0.00  0.11  0.00  0.89  0.00  0.00  0.00  0.43  0.00
  YS02001784YS02001785    1.00   0.00  0.00  0.00  1.00  0.00  0.00  0.00  0.29  0.00
  YS02001786YS02001788    1.00   0.00  0.00  0.00  0.67  0.33  0.00  0.00  0.00  0.00
  YS02001788YS02001790    1.00   0.00  0.00  0.00  0.14  0.86  0.00  0.00  0.84  0.00
  YS02001790YS02001791    1.00   0.00  0.00  0.00  0.01  0.99  0.00  0.00  0.16  0.00
  YS02001791YS02001793    1.00   0.00  0.00  0.00  0.00  1.00  0.00  0.00  0.00  0.00
  YS02001793JiankangQianchi    1.00   0.00  0.00  0.00  0.12  0.88  0.00  0.00  0.12  0.00
  YS02001882YS02001884    1.00   0.08  0.01  0.00  0.92  0.00  0.00  0.00  0.00  0.00
  YS02001884YS02001887    1.00   0.03  0.02  0.00  0.95  0.00  0.00  0.00  0.00  0.00
  YS02001887YS02001890    1.00   0.00  0.00  0.00  0.98  0.00  0.02  0.00  0.00  0.00
  YS02001890YS02001895    1.00   0.00  0.09  0.00  0.91  0.00  0.00  0.00  0.00  0.00
  YS02001895YS02001898    1.00   0.09  0.00  0.00  0.89  0.00  0.02  0.00  0.00  0.00
  YS02001898YS02001901    1.00   0.09  0.01  0.00  0.90  0.00  0.00  0.00  0.02  0.00
  YS02001901YS02001904    1.00   0.09  0.00  0.00  0.91  0.00  0.00  0.00  0.00  0.00
  YS02001904YS02001907    1.00   0.00  0.08  0.00  0.91  0.00  0.00  0.00  0.00  0.00
  YS02001907YS02006553    1.00   0.00  0.01  0.00  0.98  0.00  0.00  0.00  0.00  0.00
  YS02001910YS02001907    1.00   0.00  0.00  0.00  0.98  0.00  0.00  0.02  0.17  0.00
  YS02001915YS02001910    1.00   0.00  0.00  0.00  0.99  0.01  0.00  0.00  0.28  0.00
  YS02001918YS02001915    1.00   0.00  0.01  0.00  0.99  0.01  0.00  0.00  0.72  0.00
  YS02001920YS02001918    1.00   0.00  0.01  0.00  0.99  0.00  0.00  0.00  0.00  0.00
  YS02001923YS02001920    1.00   0.00  0.00  0.00  1.00  0.00  0.00  0.00  0.95  0.00
  YS02001926YS02001923    1.00   0.00  0.04  0.00  0.06  0.00  0.91  0.00  0.00  0.00
  YS02001929YS02001926    1.00   0.00  0.06  0.00  0.94  0.00  0.00  0.00  0.80  0.00
  YS02006553YS02006556    1.00   0.01  0.00  0.00  0.99  0.00  0.00  0.00  0.04  0.00
  YS02006556YS02006558    1.00   0.00  0.00  0.00  1.00  0.00  0.00  0.00  0.00  0.00
  YS02006558YS02006561    1.00   0.11  0.00  0.00  0.05  0.84  0.00  0.00  0.22  0.00
  YS02006561YS02001783    1.00   0.11  0.00  0.00  0.10  0.79  0.00  0.00  0.59  0.00
  YS02163301YS02001633    1.00   0.00  0.08  0.00  0.92  0.00  0.00  0.00  0.00  0.00
  YS02163601YS02164001    1.00   0.00  0.04  0.00  0.96  0.00  0.00  0.00  0.00  0.00
  YS02164001YS02001641    1.00   0.01  0.03  0.00  0.96  0.00  0.00  0.00  0.08  0.00
  YSB1154YSB6556          1.00   0.05  0.00  0.00  0.95  0.00  0.00  0.00  0.03  0.00
  YSB1171HS02004479       1.00   0.02  0.00  0.00  0.97  0.00  0.00  0.00  0.16  0.00
  YSB1174YSB1171          1.00   0.03  0.02  0.00  0.96  0.00  0.00  0.00  0.00  0.00
  YSB6556YSB1171          1.00   0.02  0.03  0.00  0.95  0.00  0.00  0.00  0.00  0.00
  
  
  *************************
  Conduit Surcharge Summary
  *************************
  
  ----------------------------------------------------------------------------
                                                           Hours        Hours 
                         --------- Hours Full --------   Above Full   Capacity
  Conduit                Both Ends  Upstream  Dnstream   Normal Flow   Limited
  ----------------------------------------------------------------------------
  HS02004478WS02006287        0.16      0.16      0.29      0.01         0.01
  HS02004479HS02004480        0.29      0.29      0.31      0.01         0.01
  HS02004480HS02004478        0.24      0.29      0.24      1.01         0.24
  HS02004770HS02004777        0.22      0.22      0.22      0.07         0.05
  HS02004777HS02004785        0.18      0.18      0.22      0.01         0.01
  HS02004785HS02004788        0.17      0.18      0.17      0.77         0.17
  HS02004788HS02004792        0.17      0.17      0.26      0.01         0.01
  HS02004792HS02004799        0.26      0.26      0.35      0.01         0.01
  HS02004799HS02004480        0.29      0.29      0.35      0.40         0.01
  HS02004802HS02004478        0.25      0.25      0.30      0.01         0.01
  HS02004807HS02004802        0.28      0.28      0.29      0.01         0.01
  HS02004817HS02004807        0.28      0.28      0.64      0.01         0.01
  HS02004817HS02004824        0.17      0.17      0.64      0.01         0.01
  HS02004824HS02004830        0.15      0.15      0.17      0.01         0.01
  HS02004830HS02004837        0.12      0.12      0.15      0.01         0.01
  HS02004837HS02004842        0.12      0.12      0.23      0.01         0.01
  HS02004842HS02004848        0.08      0.08      0.23      0.01         0.01
  HS02004848HS02004852        0.08      0.08      0.09      0.02         0.01
  HS02004852HS02004856        0.09      0.09      0.11      0.02         0.01
  HS02004856HS02004862        0.08      0.08      0.11      0.01         0.01
  HS02004862HS02004870        0.11      0.11      0.11      0.01         0.01
  HS02004870HS02004876        0.11      0.11      0.16      0.01         0.01
  HS02004876HS02004881        0.14      0.16      0.14      0.78         0.14
  HS02004881HS02006253        0.14      0.14      1.63      0.01         0.01
  HS02004901HS02004770        0.22      0.22      0.23      0.01         0.01
  WS02003072WS02003073        0.01      0.01      0.01      3.85         0.01
  WS02004401WS02004402        0.94      0.94      0.99      0.74         0.72
  WS02004402WS02004403        0.99      0.99      0.99      0.94         0.92
  WS02004403WS02004404        0.99      0.99      1.24      0.01         0.01
  WS02004404WS02004405        1.19      1.24      1.19      4.07         1.19
  WS02004405WS02004406        1.12      1.19      1.12      1.50         1.12
  WS02004406WS02004407        0.01      0.01      1.12      0.01         0.01
  WS02004407WS02004409        0.01      0.01      0.49      0.01         0.01
  WS02004409WS02004410        0.47      0.49      0.47      0.81         0.46
  WS02004410WS02004411        0.44      0.47      0.44      0.88         0.43
  WS02004411WS02004412        0.37      0.44      0.37      0.92         0.37
  WS02004412WS02004413        0.37      0.37      0.66      0.01         0.01
  WS02004413WS02003067        0.01      0.01      0.66      0.01         0.01
  WS02006109WS02006110        1.41      1.41      3.98      1.41         0.01
  WS02006110WS02006113        0.62      0.62      3.97      0.21         0.01
  WS02006111WS02006112        0.59      0.59      3.98      0.01         0.01
  WS02006112WS02006115        0.82      0.82      1.60      0.01         0.01
  WS02006113WS02006111        0.60      0.62      0.60      0.73         0.60
  WS02006115WS02006116        0.84      0.84      0.84      0.82         0.79
  WS02006116WS02004401        0.93      0.94      0.94      0.90         0.87
  WS02006228WS02006109        3.97      3.98      3.97      4.06         3.97
  WS02006229WS02006228        3.97      3.98      3.97      4.02         3.97
  WS02006230WS02006229        3.99      3.99      3.99      4.05         3.45
  WS02006231WS02006230        1.27      1.27      1.47      3.95         0.48
  WS02006232WS02006231        1.43      1.43      3.93      0.01         0.07
  WS02006234WS02006232        3.93      3.93      3.93      0.01         0.01
  WS02006235WS02006234        3.28      3.28      3.93      3.87         0.47
  WS02006238WS02006235        3.93      3.93      3.93      0.01         0.16
  WS02006239WS02006238        3.93      3.93      3.93      3.55         3.16
  WS02006240WS02006239        3.93      3.93      3.93      3.54         3.15
  WS02006242WS02006240        3.93      3.93      3.93      3.69         0.46
  WS02006243WS02006242        3.93      3.93      3.93      0.01         0.01
  WS02006245WS02006243        3.93      3.93      3.93      3.12         3.09
  WS02006247WS02006245        3.93      3.93      3.93      3.90         3.34
  WS02006248WS02006247        3.93      3.93      3.93      0.02         0.01
  WS02006249WS02006248        3.93      3.93      3.94      3.38         0.01
  WS02006251WS02006249        3.94      3.96      3.94      3.98         3.94
  WS02006252WS02006251        3.99      3.99      3.99      3.75         0.01
  WS02006253WS02006251        3.96      3.96      3.96      0.39         0.01
  WS02006256WS02006235        4.00      4.01      4.49      0.17         0.01
  WS02006280WS02006229        0.38      0.38      0.47      0.01         0.01
  WS02006284WS02006280        0.31      0.31      0.37      0.01         0.01
  WS02006287WS02006284        0.24      0.24      0.32      0.01         0.01
  YS02001580YS02001583        0.17      0.17      0.21      0.01         0.01
  YS02001583YS02001586        0.18      0.18      0.33      0.01         0.01
  YS02001586YS02001590        0.34      0.34      0.39      0.01         0.01
  YS02001590YS02001593        0.40      0.40      0.41      0.39         0.01
  YS02001593YS02001596        0.41      0.41      0.49      0.01         0.01
  YS02001596YS02001600        0.53      0.53      0.62      0.01         0.01
  YS02001600YS02001601        0.68      0.68      1.23      0.01         0.01
  YS02001601YS02001602        1.06      1.06      1.29      0.56         0.01
  YS02001602YS02001605        1.03      1.03      1.06      1.56         0.01
  YS02001605YS02001607        1.01      1.03      1.17      0.75         0.67
  YS02001607YS02001610        0.41      0.41      0.44      0.01         0.01
  YS02001610YS02001613        0.41      0.41      0.44      0.01         0.01
  YS02001613YS02001616        0.37      0.37      0.41      0.01         0.01
  YS02001616YS02001619        0.36      0.36      0.37      0.01         0.01
  YS02001619YS02001622        0.35      0.36      0.36      0.35         0.29
  YS02001622YS02001625        0.36      0.36      0.60      0.01         0.01
  YS02001625YS02001629        0.31      0.31      0.60      0.01         0.01
  YS02001629YS02163301        0.71      0.71      0.83      0.05         0.10
  YS02001633YS02163601        0.99      0.99      1.25      0.27         0.27
  YS02001641YS02001644        1.09      1.10      1.11      0.80         0.65
  YS02001644YS02001647        0.34      0.34      1.11      0.02         0.01
  YS02001647YS02001649        0.34      0.34      1.20      0.01         0.01
  YS02001649YS02001757        1.20      1.20      1.59      0.13         0.09
  YS02001652YS02001649        0.27      0.27      1.20      0.01         0.01
  YS02001655YS02001652        0.02      0.02      0.21      0.01         0.01
  YS02001658YS02001655        0.01      0.01      0.02      0.01         0.01
  YS02001751YS02001754        0.01      0.01      0.06      0.01         0.01
  YS02001754YS02001757        0.11      0.11      1.59      0.01         0.01
  YS02001757CaochengTiaoxuchi        1.59      1.59      3.55      0.11         0.11
  YS02001759YS02001757        1.27      1.27      1.59      0.01         0.01
  YS02001762YS02001759        1.16      1.16      1.27      0.01         0.01
  YS02001765YS02001762        0.98      0.98      1.16      0.01         0.01
  YS02001767YS02001765        0.80      0.81      0.98      0.01         0.01
  YS02001770YS02001767        0.77      0.77      0.81      0.25         0.13
  YS02001774YS02001770        0.36      0.36      1.08      0.01         0.01
  YS02001779YS02001774        0.05      0.05      1.08      0.01         0.01
  YS02001783YS02001784        0.23      0.25      0.23      0.35         0.23
  YS02001784YS02001785        0.12      0.23      0.12      0.50         0.12
  YS02001786YS02001788        0.01      0.13      0.01      0.42         0.01
  YS02001790YS02001791        0.01      0.01      0.01      0.21         0.01
  YS02001793JiankangQianchi        0.01      0.01      0.35      0.01         0.01
  YS02001882YS02001884        0.20      0.20      0.21      0.01         0.01
  YS02001884YS02001887        0.23      0.23      0.24      0.01         0.01
  YS02001887YS02001890        0.25      0.25      0.26      0.01         0.01
  YS02001890YS02001895        0.19      0.19      0.27      0.01         0.01
  YS02001895YS02001898        0.18      0.18      0.19      0.01         0.01
  YS02001898YS02001901        0.19      0.19      0.23      0.01         0.01
  YS02001901YS02001904        0.22      0.22      0.23      0.01         0.01
  YS02001904YS02001907        0.22      0.22      0.41      0.01         0.01
  YS02001907YS02006553        0.50      0.50      0.54      0.01         0.01
  YS02001910YS02001907        0.27      0.27      0.40      0.01         0.01
  YS02001915YS02001910        0.20      0.20      0.27      0.01         0.01
  YS02001918YS02001915        0.12      0.12      0.20      0.01         0.01
  YS02001920YS02001918        0.12      0.12      0.13      0.01         0.01
  YS02001923YS02001920        0.04      0.04      0.13      0.01         0.01
  YS02001926YS02001923        0.01      0.01      0.01      0.01         0.01
  YS02001929YS02001926        0.01      0.01      0.01      0.01         0.01
  YS02006553YS02006556        0.34      0.34      0.41      0.01         0.01
  YS02006556YS02006558        0.37      0.37      0.42      0.01         0.01
  YS02006558YS02006561        0.15      0.33      0.15      0.47         0.15
  YS02006561YS02001783        0.07      0.07      0.25      0.01         0.01
  YS02163301YS02001633        0.83      0.83      1.07      0.01         0.01
  YS02163601YS02164001        1.03      1.03      1.25      0.07         0.01
  YS02164001YS02001641        1.03      1.03      1.10      0.42         0.38
  YSB1154YSB6556              0.34      0.34      0.42      0.01         0.01
  YSB1171HS02004479           0.26      0.26      0.43      0.01         0.01
  YSB1174YSB1171              0.38      0.38      0.57      0.01         0.01
  YSB6556YSB1171              0.34      0.34      0.67      0.01         0.01
  
  
  ***************
  Pumping Summary
  ***************
  
  ---------------------------------------------------------------------------------------------------------
                                                  Min       Avg       Max     Total     Power    % Time Off
                        Percent   Number of      Flow      Flow      Flow    Volume     Usage    Pump Curve
  Pump                 Utilized   Start-Ups       LPS       LPS       LPS  10^6 ltr     Kw-hr    Low   High
  ---------------------------------------------------------------------------------------------------------
  CC-R1                    0.00           0      0.00      0.00      0.00     0.000      0.00    0.0    0.0
  CC-R2                    0.00           0      0.00      0.00      0.00     0.000      0.00    0.0    0.0
  CC-S1                   63.74           2      0.00    200.00    200.00     2.754     14.17    0.0    0.0
  CC-S2                   63.74           2      0.00    200.00    200.00     2.754     14.17    0.0    0.0
  JK-R1                   91.66           4      0.00    144.26   1000.00     1.916      6.15    0.0    0.0
  JK-R2                   30.63           4      0.00    295.24   1000.00     0.996      3.13    0.0    0.0
  JK-S                    27.86           4      0.00     99.61    300.00     0.272      5.09    0.0    0.0
  XR-1                    97.20           1      0.00     95.00     95.00     1.995      8.82    0.0    0.0
  XR-2                    91.96           1      0.00     95.00     95.00     1.887      7.99    0.0    0.0
  XR-3                     0.00           0      0.00      0.00      0.00     0.000      0.00    0.0    0.0
  XR-4                     0.00           0      0.00      0.00      0.00     0.000      0.00    0.0    0.0
  

  Analysis begun on:  Sat Aug 27 11:17:19 2022
  Analysis ended on:  Sat Aug 27 11:17:22 2022
  Total elapsed time: 00:00:03