
  OWA STORM WATER MANAGEMENT MODEL - VERSION v5.1.14 (OWA 2022-07-31)
  --------------------------------------------------------------

  WARNING 04: minimum elevation drop used for Conduit WS02004404WS02004405
  WARNING 03: negative offset ignored for Link YS02001904YS02001907
  
  *********************************************************
  NOTE: The summary statistics displayed in this report are
  based on results found at every computational time step,  
  not just on results from each reporting time step.
  *********************************************************
  
  ****************
  Analysis Options
  ****************
  Flow Units ............... LPS
  Process Models:
    Rainfall/Runoff ........ YES
    RDII ................... NO
    Snowmelt ............... NO
    Groundwater ............ NO
    Flow Routing ........... YES
    Ponding Allowed ........ NO
    Water Quality .......... NO
  Infiltration Method ...... HORTON
  Flow Routing Method ...... DYNWAVE
  Surcharge Method ......... EXTRAN
  Starting Date ............ 01/01/2000 00:00:00
  Ending Date .............. 01/01/2000 06:00:00
  Antecedent Dry Days ...... 8.0
  Report Time Step ......... 00:01:00
  Wet Time Step ............ 00:01:00
  Dry Time Step ............ 00:01:00
  Routing Time Step ........ 30.00 sec
  Variable Time Step ....... YES
  Maximum Trials ........... 8
  Number of Threads ........ 4
  Head Tolerance ........... 0.001500 m
  
  
  **************************        Volume         Depth
  Runoff Quantity Continuity     hectare-m            mm
  **************************     ---------       -------
  Total Precipitation ......         5.077        83.801
  Evaporation Loss .........         0.000         0.000
  Infiltration Loss ........         0.254         4.193
  Surface Runoff ...........         4.757        78.523
  Final Storage ............         0.067         1.099
  Continuity Error (%) .....        -0.017
  
  
  **************************        Volume        Volume
  Flow Routing Continuity        hectare-m      10^6 ltr
  **************************     ---------     ---------
  Dry Weather Inflow .......         0.472         4.722
  Wet Weather Inflow .......         4.757        47.574
  Groundwater Inflow .......         0.000         0.000
  RDII Inflow ..............         0.000         0.000
  External Inflow ..........         0.078         0.784
  External Outflow .........         2.824        28.244
  Flooding Loss ............         2.657        26.571
  Evaporation Loss .........         0.000         0.000
  Exfiltration Loss ........         0.000         0.000
  Initial Stored Volume ....         0.303         3.031
  Final Stored Volume ......         0.322         3.217
  Continuity Error (%) .....        -3.423
  
  
  *************************
  Highest Continuity Errors
  *************************
  Node JK-storage (-34.24%)
  Node YS02001884 (5.28%)
  Node YS02001583 (-2.45%)
  Node HS02004842 (1.44%)
  
  
  ***************************
  Time-Step Critical Elements
  ***************************
  Link WS02006252WS02006251 (36.94%)
  Link WS02006280WS02006229 (23.85%)
  Link YS02001793JiankangQianchi (9.56%)
  Link WS02004404WS02004405 (8.24%)
  Link YS02001791YS02001793 (3.66%)
  
  
  ********************************
  Highest Flow Instability Indexes
  ********************************
  Link WS02006113WS02006111 (31)
  Link WS02004404WS02004405 (25)
  Link WS02006238WS02006235 (25)
  Link WS02006229WS02006228 (23)
  Link WS02006111WS02006112 (23)
  
  
  *************************
  Routing Time Step Summary
  *************************
  Minimum Time Step           :     0.41 sec
  Average Time Step           :     1.70 sec
  Maximum Time Step           :    30.00 sec
  Percent in Steady State     :    -0.00
  Average Iterations per Step :     3.49
  Percent Not Converging      :    12.81
  
  
  ***************************
  Subcatchment Runoff Summary
  ***************************
  
  ------------------------------------------------------------------------------------------------------------------------------
                            Total      Total      Total      Total     Imperv       Perv      Total       Total     Peak  Runoff
                           Precip      Runon       Evap      Infil     Runoff     Runoff     Runoff      Runoff   Runoff   Coeff
  Subcatchment                 mm         mm         mm         mm         mm         mm         mm    10^6 ltr      LPS
  ------------------------------------------------------------------------------------------------------------------------------
  sub0                      83.80       0.00       0.00       1.03      76.68       4.84      81.52        0.07    37.76   0.973
  sub1                      83.80       0.00       0.00       1.78      73.28       7.44      80.71        0.54   288.94   0.963
  sub10                     83.80       0.00       0.00       1.25      75.76       5.45      81.21        0.90   485.29   0.969
  sub11                     83.80       0.00       0.00       1.23      75.80       5.48      81.28        0.94   522.68   0.970
  sub12                     83.80       0.00       0.00       2.00      71.72       8.90      80.62        0.70   401.96   0.962
  sub14                     83.80       0.00       0.00       1.41      74.96       6.14      81.10        0.77   423.56   0.968
  sub15                     83.80       0.00       0.00       5.60      57.65      19.54      77.20        1.33   707.05   0.921
  sub16                     83.80       0.00       0.00       5.77      55.22      21.89      77.12        0.81   451.48   0.920
  sub17                     83.80       0.00       0.00       5.62      56.04      21.20      77.24        0.66   368.66   0.922
  sub2                      83.80       0.00       0.00       8.04      51.83      22.97      74.80        0.70   334.92   0.893
  sub22                     83.80       0.00       0.00       8.51      46.97      27.53      74.49        4.71  2444.96   0.889
  sub23                     83.80       0.00       0.00       6.92      51.91      24.09      76.00        3.63  1951.48   0.907
  sub3                      83.80       0.00       0.00       8.16      51.75      22.26      74.00        1.67   743.57   0.883
  sub4                      83.80       0.00       0.00       2.01      72.94       7.21      80.15        1.67   786.43   0.956
  sub5                      83.80       0.00       0.00       1.09      76.57       4.78      81.34        0.92   494.82   0.971
  sub60                     83.80       0.00       0.00       1.89      72.51       8.17      80.68        1.06   591.54   0.963
  sub61                     83.80       0.00       0.00       2.75      68.40      11.50      79.90        1.47   823.34   0.953
  sub62                     83.80       0.00       0.00       1.26      75.75       5.45      81.20        2.22  1198.07   0.969
  sub63                     83.80       0.00       0.00       5.12      58.51      19.19      77.69        1.76   972.74   0.927
  sub64                     83.80       0.00       0.00       2.58      69.95       9.99      79.94        1.92  1013.52   0.954
  sub65                     83.80       0.00       0.00       2.23      71.56       8.66      80.22        2.21  1145.60   0.957
  sub66                     83.80       0.00       0.00       6.40      58.29      17.91      76.20        3.55  1644.55   0.909
  sub67                     83.80       0.00       0.00       1.20      75.83       5.50      81.34        1.51   855.79   0.971
  sub68                     83.80       0.00       0.00       2.28      70.84       9.46      80.30        2.21  1215.25   0.958
  sub69                     83.80       0.00       0.00       2.08      71.02      10.49      81.52        3.02  1527.48   0.973
  sub7                      83.80       0.00       0.00       1.38      74.99       6.16      81.15        0.27   152.77   0.968
  sub70                     83.80       0.00       0.00       6.99      54.99      21.50      76.49        2.21   936.43   0.913
  sub71                     83.80       0.00       0.00       1.30      75.67       5.41      81.08        2.12  1098.15   0.967
  sub72                     83.80       0.00       0.00       1.16      76.37       4.71      81.08        1.11   550.53   0.967
  sub8                      83.80       0.00       0.00       1.40      74.97       6.14      81.11        0.52   285.90   0.968
  sub9                      83.80       0.00       0.00       1.40      74.96       6.14      81.10        0.39   214.55   0.968
  
  
  ******************
  Node Depth Summary
  ******************
  
  ---------------------------------------------------------------------------------
                                 Average  Maximum  Maximum  Time of Max    Reported
                                   Depth    Depth      HGL   Occurrence   Max Depth
  Node                 Type       Meters   Meters   Meters  days hr:min      Meters
  ---------------------------------------------------------------------------------
  HS02004478           JUNCTION     0.30     1.59    10.81     0  02:24        1.58
  HS02004479           JUNCTION     0.38     1.69    10.90     0  02:11        1.66
  HS02004480           JUNCTION     0.35     1.66    10.90     0  02:11        1.63
  HS02004770           JUNCTION     0.33     1.42    11.25     0  02:08        1.42
  HS02004777           JUNCTION     0.36     1.48    11.28     0  02:08        1.46
  HS02004785           JUNCTION     0.26     1.49    11.39     0  02:07        1.35
  HS02004788           JUNCTION     0.22     1.42    11.32     0  02:08        1.35
  HS02004792           JUNCTION     0.30     1.60    11.12     0  02:08        1.60
  HS02004799           JUNCTION     0.42     1.76    10.97     0  02:11        1.76
  HS02004802           JUNCTION     0.39     1.80    10.93     0  02:33        1.79
  HS02004807           JUNCTION     0.37     1.92    11.09     0  02:23        1.92
  HS02004817           JUNCTION     0.67     2.41    11.26     0  02:30        2.40
  HS02004824           JUNCTION     0.25     2.01    11.41     0  02:26        2.01
  HS02004830           JUNCTION     0.25     1.99    11.46     0  02:28        1.98
  HS02004837           JUNCTION     0.21     1.91    11.49     0  02:28        1.91
  HS02004842           JUNCTION     0.51     2.22    11.49     0  02:26        2.22
  HS02004848           JUNCTION     0.19     1.90    11.50     0  02:28        1.90
  HS02004852           JUNCTION     0.20     1.97    11.48     0  02:28        1.96
  HS02004856           JUNCTION     0.25     2.03    11.45     0  02:29        2.02
  HS02004862           JUNCTION     0.22     2.00    11.38     0  02:26        2.00
  HS02004870           JUNCTION     0.21     2.01    11.29     0  02:29        2.00
  HS02004876           JUNCTION     0.27     2.10    11.13     0  02:28        2.09
  HS02004881           JUNCTION     0.19     1.84    10.87     0  02:29        1.84
  HS02004901           JUNCTION     0.34     1.42    11.24     0  02:08        1.42
  WS02001211           JUNCTION     0.66     0.82     5.66     0  02:32        0.82
  WS02001212           JUNCTION     0.40     0.58     5.65     0  02:32        0.58
  WS02001213           JUNCTION     0.64     0.88     5.64     0  02:31        0.88
  WS02003059           JUNCTION     0.70     0.95     5.63     0  02:31        0.95
  WS02003060           JUNCTION     0.42     0.70     5.63     0  02:31        0.70
  WS02003066           JUNCTION     0.25     0.46     6.01     0  02:30        0.46
  WS02003067           JUNCTION     0.59     0.89     6.21     0  02:30        0.89
  WS02003069           JUNCTION     0.47     0.79     5.37     0  02:31        0.79
  WS02003072           JUNCTION     0.53     0.82     5.19     0  02:32        0.82
  WS02003073           JUNCTION     0.32     0.52     4.59     0  02:32        0.52
  WS02004138           JUNCTION     0.14     0.14     7.39     0  00:29        0.14
  WS02004139           JUNCTION     0.60     0.75     5.66     0  02:33        0.75
  WS02004401           JUNCTION     0.89     1.94     7.94     0  02:29        1.94
  WS02004402           JUNCTION     0.90     1.88     7.84     0  02:29        1.87
  WS02004403           JUNCTION     0.90     1.80     7.73     0  02:30        1.78
  WS02004404           JUNCTION     0.96     1.80     7.65     0  02:29        1.80
  WS02004405           JUNCTION     0.95     1.75     7.60     0  02:29        1.74
  WS02004406           JUNCTION     0.93     1.63     7.46     0  02:30        1.63
  WS02004407           JUNCTION     0.32     0.98     7.29     0  02:30        0.98
  WS02004409           JUNCTION     0.63     1.42     7.19     0  02:29        1.41
  WS02004410           JUNCTION     0.63     1.32     7.04     0  02:28        1.31
  WS02004411           JUNCTION     0.63     1.22     6.90     0  02:29        1.22
  WS02004412           JUNCTION     0.62     1.12     6.76     0  02:29        1.12
  WS02004413           JUNCTION     0.76     1.15     6.62     0  02:29        1.15
  WS02006109           JUNCTION     1.16     2.64     9.26     0  02:08        2.64
  WS02006110           JUNCTION     1.08     2.42     9.00     0  02:30        2.41
  WS02006111           JUNCTION     0.54     1.82     8.52     0  02:29        1.80
  WS02006112           JUNCTION     1.13     2.68     8.56     0  00:00        2.46
  WS02006113           JUNCTION     0.63     1.87     8.77     0  02:29        1.87
  WS02006115           JUNCTION     0.83     2.04     8.18     0  02:29        2.04
  WS02006116           JUNCTION     0.89     2.03     8.07     0  02:29        2.02
  WS02006228           JUNCTION     1.25     3.03     9.68     0  02:23        3.02
  WS02006229           JUNCTION     1.27     3.22     9.92     0  02:34        3.21
  WS02006230           JUNCTION     1.18     2.65     9.39     0  02:01        2.65
  WS02006231           JUNCTION     0.89     2.19     9.31     0  02:13        2.19
  WS02006232           JUNCTION     0.98     2.18     9.22     0  02:01        2.18
  WS02006234           JUNCTION     0.86     1.96     9.12     0  02:00        1.96
  WS02006235           JUNCTION     0.87     1.99     9.16     0  02:10        1.93
  WS02006238           JUNCTION     0.90     2.01     9.15     0  02:10        1.93
  WS02006239           JUNCTION     0.84     1.86     9.07     0  02:10        1.78
  WS02006240           JUNCTION     0.78     1.68     8.97     0  02:10        1.62
  WS02006242           JUNCTION     0.82     1.55     8.82     0  01:40        1.55
  WS02006243           JUNCTION     0.71     1.40     8.82     0  03:10        1.36
  WS02006245           JUNCTION     0.69     1.30     8.78     0  03:10        1.27
  WS02006247           JUNCTION     0.69     1.24     8.74     0  03:10        1.22
  WS02006248           JUNCTION     0.64     1.10     8.69     0  01:40        1.10
  WS02006249           JUNCTION     0.66     1.09     8.69     0  01:33        1.09
  WS02006251           JUNCTION     0.82     2.16     9.83     0  02:29        2.15
  WS02006252           JUNCTION     0.57     1.50     9.74     0  02:10        1.50
  WS02006253           JUNCTION     0.92     3.12    10.77     0  02:29        3.10
  WS02006256           JUNCTION     1.14     2.35     9.28     0  00:46        2.35
  WS02006280           JUNCTION     0.39     1.74    10.01     0  02:27        1.73
  WS02006284           JUNCTION     0.64     1.95    10.34     0  02:25        1.94
  WS02006287           JUNCTION     0.37     1.74    10.69     0  02:24        1.73
  WSF200               JUNCTION     0.26     0.53     5.76     0  02:30        0.53
  YS02001580           JUNCTION     0.13     1.05     9.59     0  02:04        0.77
  YS02001583           JUNCTION     0.15     1.04     9.54     0  02:04        0.81
  YS02001586           JUNCTION     0.26     1.13     9.30     0  02:04        1.13
  YS02001590           JUNCTION     0.37     1.38     9.24     0  02:04        1.37
  YS02001593           JUNCTION     0.30     1.30     9.16     0  02:04        1.28
  YS02001596           JUNCTION     0.41     1.67     9.09     0  02:04        1.65
  YS02001600           JUNCTION     0.49     1.87     9.00     0  02:04        1.86
  YS02001601           JUNCTION     0.69     2.06     8.90     0  02:03        2.06
  YS02001602           JUNCTION     0.60     1.87     8.77     0  02:07        1.87
  YS02001605           JUNCTION     0.55     1.77     8.68     0  02:21        1.77
  YS02001607           JUNCTION     0.52     1.65     8.49     0  02:32        1.64
  YS02001610           JUNCTION     0.55     1.68     8.48     0  02:09        1.68
  YS02001613           JUNCTION     0.52     1.67     8.51     0  02:28        1.66
  YS02001616           JUNCTION     0.46     1.61     8.52     0  02:27        1.61
  YS02001619           JUNCTION     0.44     1.61     8.54     0  02:28        1.61
  YS02001622           JUNCTION     0.43     1.58     8.49     0  02:29        1.57
  YS02001625           JUNCTION     0.63     1.78     8.38     0  02:09        1.78
  YS02001629           JUNCTION     0.56     1.85     8.40     0  02:13        1.85
  YS02001633           JUNCTION     0.63     1.99     8.44     0  02:29        1.98
  YS02001641           JUNCTION     0.60     1.94     8.38     0  02:29        1.94
  YS02001644           JUNCTION     0.60     1.92     8.35     0  02:13        1.92
  YS02001647           JUNCTION     0.41     1.76     8.37     0  02:25        1.75
  YS02001649           JUNCTION     0.48     2.00     8.39     0  02:25        1.97
  YS02001652           JUNCTION     0.37     1.85     8.45     0  02:25        1.82
  YS02001655           JUNCTION     0.29     1.65     8.50     0  02:25        1.61
  YS02001658           JUNCTION     0.21     1.55     8.69     0  02:13        1.37
  YS02001661           JUNCTION     0.21     1.20     8.61     0  02:21        1.16
  YS02001664           JUNCTION     0.08     0.60     8.53     0  02:29        0.60
  YS02001745           JUNCTION     0.12     0.88     8.40     0  02:29        0.88
  YS02001748           JUNCTION     0.21     1.32     8.39     0  02:29        1.31
  YS02001751           JUNCTION     0.26     1.50     8.38     0  02:29        1.49
  YS02001754           JUNCTION     0.34     1.75     8.36     0  02:28        1.74
  YS02001757           JUNCTION     0.51     2.08     8.34     0  02:29        2.07
  YS02001759           JUNCTION     0.46     2.05     8.41     0  02:29        2.04
  YS02001762           JUNCTION     0.44     2.02     8.42     0  02:28        2.01
  YS02001765           JUNCTION     0.42     1.98     8.43     0  02:30        1.97
  YS02001767           JUNCTION     0.42     1.96     8.44     0  02:29        1.94
  YS02001770           JUNCTION     0.43     1.95     8.44     0  02:29        1.95
  YS02001774           JUNCTION     0.48     2.00     8.42     0  02:29        2.00
  YS02001779           JUNCTION     0.31     1.68     8.37     0  02:09        1.68
  YS02001783           JUNCTION     0.29     2.19     8.33     0  02:16        1.85
  YS02001784           JUNCTION     0.31     2.23     8.30     0  02:16        1.99
  YS02001786           JUNCTION     0.26     2.08     8.11     0  02:16        2.04
  YS02001788           JUNCTION     0.19     2.03     8.01     0  02:15        1.90
  YS02001790           JUNCTION     0.23     1.96     7.60     0  02:16        1.95
  YS02001791           JUNCTION     0.16     1.70     7.17     0  02:16        1.68
  YS02001793           JUNCTION     0.15     2.11     6.94     0  02:56        1.97
  YS02001882           JUNCTION     0.35     1.65     8.36     0  02:29        1.64
  YS02001884           JUNCTION     0.43     1.75     8.37     0  02:28        1.74
  YS02001887           JUNCTION     0.51     1.83     8.37     0  02:29        1.82
  YS02001890           JUNCTION     0.54     1.81     8.32     0  02:14        1.81
  YS02001895           JUNCTION     0.33     1.57     8.31     0  02:22        1.56
  YS02001898           JUNCTION     0.33     1.56     8.30     0  02:15        1.56
  YS02001901           JUNCTION     0.42     1.68     8.29     0  02:15        1.67
  YS02001904           JUNCTION     0.40     1.64     8.27     0  02:20        1.63
  YS02001907           JUNCTION     0.70     1.96     8.25     0  02:13        1.96
  YS02001910           JUNCTION     0.51     1.93     8.44     0  02:29        1.93
  YS02001915           JUNCTION     0.36     1.87     8.59     0  02:29        1.85
  YS02001918           JUNCTION     0.21     1.55     8.62     0  02:30        1.55
  YS02001920           JUNCTION     0.30     1.63     8.64     0  02:30        1.62
  YS02001923           JUNCTION     0.17     1.39     8.65     0  02:30        1.39
  YS02001926           JUNCTION     0.20     1.22     8.66     0  02:30        1.22
  YS02001929           JUNCTION     0.12     0.99     8.68     0  02:30        0.99
  YS02006553           JUNCTION     0.71     2.09     8.38     0  02:16        1.98
  YS02006556           JUNCTION     0.68     2.22     8.53     0  02:16        1.97
  YS02006558           JUNCTION     0.72     2.33     8.59     0  02:16        2.07
  YS02006561           JUNCTION     0.18     1.63     8.29     0  02:16        1.31
  YS02163301           JUNCTION     0.58     1.91     8.43     0  02:30        1.91
  YS02163601           JUNCTION     0.66     2.03     8.42     0  02:13        2.01
  YS02164001           JUNCTION     0.59     1.95     8.41     0  02:13        1.93
  YSB1154              JUNCTION     0.50     1.97    11.02     0  02:29        1.96
  YSB1171              JUNCTION     0.66     1.95    10.85     0  02:11        1.95
  YSB1174              JUNCTION     0.46     1.81    10.92     0  02:29        1.81
  YSB6556              JUNCTION     0.41     1.76    10.93     0  02:29        1.76
  CC-1                 OUTFALL      0.00     0.00     0.00     0  00:00        0.00
  CC-2                 OUTFALL      0.00     0.00     0.00     0  00:00        0.00
  JK-1                 OUTFALL      0.00     0.00     0.00     0  00:00        0.00
  JK-2                 OUTFALL      0.00     0.00     0.00     0  00:00        0.00
  WSC                  OUTFALL      0.32     0.52     1.19     0  02:32        0.52
  CC-storage           STORAGE      0.99     2.01     7.51     0  02:48        2.01
  JK-storage           STORAGE      2.40     5.80     6.60     0  02:16        5.80
  XR-storage           STORAGE      7.57     8.66     6.66     0  06:00        8.66
  
  
  *******************
  Node Inflow Summary
  *******************
  
  -------------------------------------------------------------------------------------------------
                                  Maximum  Maximum                  Lateral       Total        Flow
                                  Lateral    Total  Time of Max      Inflow      Inflow     Balance
                                   Inflow   Inflow   Occurrence      Volume      Volume       Error
  Node                 Type           LPS      LPS  days hr:min    10^6 ltr    10^6 ltr     Percent
  -------------------------------------------------------------------------------------------------
  HS02004478           JUNCTION      0.00  2304.76     0  02:24           0        10.5      -0.004
  HS02004479           JUNCTION      0.00   378.68     0  02:15           0        1.06       0.086
  HS02004480           JUNCTION      0.00  2016.78     0  02:11           0        7.79       0.030
  HS02004770           JUNCTION   1951.48  1951.48     0  02:30        3.63        3.89       0.077
  HS02004777           JUNCTION      0.03   681.84     0  02:08    0.000648        2.22       0.247
  HS02004785           JUNCTION      0.15   682.74     0  02:08     0.00324        2.21       0.017
  HS02004788           JUNCTION    708.72   885.82     0  02:08        1.36        3.58       0.004
  HS02004792           JUNCTION   2445.24  3308.77     0  02:30        4.71        8.29       0.002
  HS02004799           JUNCTION    423.56  1706.26     0  02:11       0.772        7.08       0.044
  HS02004802           JUNCTION      0.00  1233.36     0  02:30           0        2.96       0.139
  HS02004807           JUNCTION    522.68  1719.32     0  02:30       0.945        3.19       0.133
  HS02004817           JUNCTION      0.60  1196.96     0  02:31       0.013         2.3       0.746
  HS02004824           JUNCTION    786.48  1371.46     0  02:30        1.67        2.56       0.019
  HS02004830           JUNCTION      0.15   584.98     0  02:30     0.00324        1.11       0.108
  HS02004837           JUNCTION    491.64   685.53     0  02:11        1.03        1.52       0.051
  HS02004842           JUNCTION      0.00   689.58     0  02:11           0        0.91       1.458
  HS02004848           JUNCTION    743.57   917.21     0  02:11        1.67        2.34       0.000
  HS02004852           JUNCTION      0.00   896.16     0  02:11           0        2.13      -0.027
  HS02004856           JUNCTION    214.55   912.49     0  02:11        0.39        2.52       0.082
  HS02004862           JUNCTION    335.12  1053.94     0  02:30       0.701        3.22      -0.003
  HS02004870           JUNCTION    285.90  1255.07     0  02:26       0.518        3.72       0.001
  HS02004876           JUNCTION    288.94  1511.52     0  02:30       0.537        4.25       0.022
  HS02004881           JUNCTION    152.77  1658.64     0  02:30       0.274        4.53       0.001
  HS02004901           JUNCTION    451.48   717.26     0  02:30       0.808        1.31       0.141
  WS02001211           JUNCTION      7.35   205.30     0  03:10       0.159        4.02       0.828
  WS02001212           JUNCTION      0.00   214.09     0  03:09           0        3.98       0.395
  WS02001213           JUNCTION      0.00   220.26     0  03:09           0        3.97       0.453
  WS02003059           JUNCTION      0.00   226.27     0  03:08           0        3.96       0.813
  WS02003060           JUNCTION     16.53  1536.96     0  02:30       0.357        14.1       0.106
  WS02003066           JUNCTION      0.00  1330.16     0  02:30           0        9.85       0.016
  WS02003067           JUNCTION      0.00  1329.88     0  02:30           0        9.85       0.045
  WS02003069           JUNCTION      0.32  1536.83     0  02:31     0.00691        14.1       0.110
  WS02003072           JUNCTION      0.00  1536.35     0  02:31           0        14.1       0.149
  WS02003073           JUNCTION      1.82  1538.02     0  02:32      0.0393        14.1       0.156
  WS02004138           JUNCTION      0.00   190.00     0  00:29           0        3.88       0.084
  WS02004139           JUNCTION      0.32   191.33     0  00:29     0.00693        3.89       0.688
  WS02004401           JUNCTION      0.00  1331.11     0  02:30           0        9.97       0.119
  WS02004402           JUNCTION      0.00  1331.03     0  02:30           0        9.96       0.114
  WS02004403           JUNCTION      0.00  1331.08     0  02:30           0        9.95       0.111
  WS02004404           JUNCTION      0.16  1331.82     0  02:30      0.0035        9.94       0.089
  WS02004405           JUNCTION      0.04  1331.73     0  02:30    0.000823        9.94       0.130
  WS02004406           JUNCTION      0.00  1331.47     0  02:30           0        9.92       0.221
  WS02004407           JUNCTION      0.00  1331.47     0  02:30           0        9.89       0.017
  WS02004409           JUNCTION      0.00  1329.86     0  02:30           0        9.89       0.039
  WS02004410           JUNCTION      0.00  1330.06     0  02:30           0        9.89       0.053
  WS02004411           JUNCTION      0.00  1329.87     0  02:30           0        9.88       0.065
  WS02004412           JUNCTION      0.00  1329.80     0  02:30           0        9.88       0.083
  WS02004413           JUNCTION      0.00  1329.92     0  02:30           0        9.87       0.147
  WS02006109           JUNCTION      1.23  1308.01     0  00:00      0.0266         9.7       0.128
  WS02006110           JUNCTION      0.00  1125.97     0  02:46           0        9.27      -0.375
  WS02006111           JUNCTION      0.00  1176.04     0  00:00           0        9.29      -0.410
  WS02006112           JUNCTION    368.66  2307.30     0  00:00       0.663        9.99       0.004
  WS02006113           JUNCTION      0.00  1126.11     0  02:46           0        9.26      -0.479
  WS02006115           JUNCTION      0.00  2152.75     0  00:00           0        9.98       0.049
  WS02006116           JUNCTION      0.00  1330.89     0  02:29           0        9.97       0.025
  WS02006228           JUNCTION      0.00  1288.38     0  02:24           0        9.66       0.071
  WS02006229           JUNCTION      0.00  2304.62     0  02:24           0        12.8       0.059
  WS02006230           JUNCTION     10.28  1025.44     0  02:24       0.222        5.46       0.064
  WS02006231           JUNCTION      0.00   536.15     0  03:50           0        3.92      -0.040
  WS02006232           JUNCTION      0.00   533.86     0  03:50           0        3.92       0.125
  WS02006234           JUNCTION      0.00   529.56     0  03:50           0        3.92      -0.033
  WS02006235           JUNCTION      0.00   525.19     0  03:50           0        3.86       0.056
  WS02006238           JUNCTION      0.00   418.76     0  03:50           0        3.75      -0.036
  WS02006239           JUNCTION      0.00   418.74     0  03:50           0        3.75      -0.035
  WS02006240           JUNCTION      0.00   418.72     0  03:50           0        3.75      -0.000
  WS02006242           JUNCTION      0.00   418.74     0  03:50           0        3.75       0.045
  WS02006243           JUNCTION      0.00   418.73     0  03:50           0        3.26      -0.027
  WS02006245           JUNCTION      0.00   418.72     0  03:50           0        3.26       0.085
  WS02006247           JUNCTION      0.00   418.72     0  03:50           0        3.26       0.016
  WS02006248           JUNCTION      0.00   418.75     0  03:50           0        3.59       0.018
  WS02006249           JUNCTION      0.00  1376.42     0  02:30           0        7.55       0.029
  WS02006251           JUNCTION      0.08  1696.47     0  02:29     0.00166        7.77      -0.006
  WS02006252           JUNCTION      0.00   720.44     0  02:30           0        4.06      -0.022
  WS02006253           JUNCTION     37.76  1696.60     0  02:29       0.066         4.6       0.016
  WS02006256           JUNCTION      0.00   300.00     0  01:40           0       0.953       0.123
  WS02006280           JUNCTION      0.00  2303.10     0  02:23           0        10.5      -0.001
  WS02006284           JUNCTION      0.10  2303.56     0  02:24     0.00207        10.5       0.012
  WS02006287           JUNCTION      0.00  2303.94     0  02:23           0        10.5       0.009
  WSF200               JUNCTION      0.00  1330.26     0  02:30           0        9.85       0.008
  YS02001580           JUNCTION      0.00    56.68     0  02:04           0     0.00417       0.973
  YS02001583           JUNCTION      0.00    86.58     0  02:04           0       0.016      -2.389
  YS02001586           JUNCTION    936.43   936.43     0  02:30        2.21        2.22       0.041
  YS02001590           JUNCTION      0.00   317.98     0  02:38           0        1.61      -0.012
  YS02001593           JUNCTION      0.00   318.06     0  02:38           0        1.61       0.007
  YS02001596           JUNCTION      0.00   318.07     0  02:37           0        1.61      -0.008
  YS02001600           JUNCTION      0.00   318.08     0  02:41           0        1.61       0.030
  YS02001601           JUNCTION   1527.48  1845.23     0  02:30        3.02        4.62       0.025
  YS02001602           JUNCTION      0.00   490.73     0  02:04           0        2.65       0.032
  YS02001605           JUNCTION      0.00   490.61     0  02:04           0        2.48       0.049
  YS02001607           JUNCTION      0.00   490.65     0  02:04           0        2.47       0.107
  YS02001610           JUNCTION      0.00   925.75     0  02:30           0        2.89       0.101
  YS02001613           JUNCTION      0.00   589.00     0  02:30           0        2.23       0.099
  YS02001616           JUNCTION      0.00   589.62     0  02:30           0        2.23       0.039
  YS02001619           JUNCTION   1644.55  1644.55     0  02:30        3.55        5.36       0.006
  YS02001622           JUNCTION      0.00  1047.87     0  02:30           0        4.94       0.012
  YS02001625           JUNCTION      0.00  1496.34     0  02:30           0        5.34       0.229
  YS02001629           JUNCTION      0.00   874.16     0  02:06           0        3.66      -0.001
  YS02001633           JUNCTION   1145.80  1181.71     0  02:07        2.21        5.45       0.078
  YS02001641           JUNCTION      0.00  1182.12     0  02:07           0        5.03       0.065
  YS02001644           JUNCTION   1013.56  1719.22     0  02:30        1.92        6.95       0.053
  YS02001647           JUNCTION      0.00  1466.05     0  02:07           0        5.96       0.010
  YS02001649           JUNCTION      0.00  1667.18     0  02:09           0        7.72       0.005
  YS02001652           JUNCTION      0.00   978.98     0  02:30           0        1.77      -0.048
  YS02001655           JUNCTION      0.15   978.59     0  02:30     0.00332        1.77       0.046
  YS02001658           JUNCTION      0.00   978.39     0  02:30           0        1.76      -0.056
  YS02001661           JUNCTION      0.00   978.18     0  02:30           0        1.76      -0.040
  YS02001664           JUNCTION    972.74   972.74     0  02:30        1.76        1.76      -0.000
  YS02001745           JUNCTION    591.54   591.54     0  02:30        1.06        1.06       0.100
  YS02001748           JUNCTION      0.04   597.88     0  02:30    0.000972        1.06      -0.169
  YS02001751           JUNCTION      0.01   597.69     0  02:30    0.000238        1.07       0.058
  YS02001754           JUNCTION      0.26   598.41     0  02:30     0.00562        1.08      -0.111
  YS02001757           JUNCTION      0.00  2764.61     0  02:21           0        12.1       0.019
  YS02001759           JUNCTION    823.38  1205.27     0  02:29        1.47        3.27      -0.005
  YS02001762           JUNCTION      0.00   641.14     0  02:20           0         1.8       0.006
  YS02001765           JUNCTION      0.00   642.39     0  02:20           0         1.8       0.008
  YS02001767           JUNCTION      0.54   642.56     0  02:20      0.0116         1.8       0.008
  YS02001770           JUNCTION   1198.23  1198.23     0  02:30        2.23        2.27       0.002
  YS02001774           JUNCTION      0.00   816.55     0  02:30           0       0.497       0.231
  YS02001779           JUNCTION      0.01   816.75     0  02:30    0.000108       0.453      -0.050
  YS02001783           JUNCTION      0.00  1163.47     0  02:27           0        4.84       0.000
  YS02001784           JUNCTION      1.06  1164.70     0  02:27      0.0229        4.87       0.011
  YS02001786           JUNCTION      0.06  1164.46     0  02:27     0.00122        4.87       0.009
  YS02001788           JUNCTION      0.07  1164.55     0  02:27     0.00153        4.87      -0.003
  YS02001790           JUNCTION      0.15  1211.11     0  02:21     0.00335        4.87      -0.021
  YS02001791           JUNCTION      0.00  1360.68     0  02:21           0        4.87      -0.015
  YS02001793           JUNCTION      0.00  1414.11     0  02:21           0        4.87      -0.083
  YS02001882           JUNCTION      0.00    28.12     0  02:09           0      0.0139       5.131
  YS02001884           JUNCTION      0.00    35.07     0  02:08           0      0.0498       5.577
  YS02001887           JUNCTION    856.24   856.24     0  02:30        1.52        1.56       0.299
  YS02001890           JUNCTION      0.00   856.18     0  02:29           0        1.51       0.349
  YS02001895           JUNCTION      0.00   518.37     0  02:32           0        1.37       0.134
  YS02001898           JUNCTION      0.00   518.49     0  02:31           0        1.37       0.017
  YS02001901           JUNCTION      0.00   518.68     0  02:31           0        1.38       0.255
  YS02001904           JUNCTION      0.00   518.47     0  02:32           0        1.38       0.221
  YS02001907           JUNCTION      0.00  2222.16     0  02:30           0        4.67       0.393
  YS02001910           JUNCTION      0.00  1648.56     0  02:30           0         3.3       0.225
  YS02001915           JUNCTION   1098.17  1648.26     0  02:30        2.12        3.31       0.054
  YS02001918           JUNCTION      0.00   563.60     0  02:30           0         1.2       0.014
  YS02001920           JUNCTION      2.87   563.45     0  02:30       0.062        1.19       0.092
  YS02001923           JUNCTION      0.04   559.38     0  02:30    0.000814        1.12      -0.004
  YS02001926           JUNCTION      0.05   558.68     0  02:30     0.00113        1.12       0.017
  YS02001929           JUNCTION    550.53   550.53     0  02:30        1.11        1.11      -0.005
  YS02006553           JUNCTION      0.00   801.96     0  02:44           0        2.67       0.454
  YS02006556           JUNCTION      0.00   800.91     0  02:44           0        2.68       0.307
  YS02006558           JUNCTION   1216.13  1216.13     0  02:30        2.23        4.88       0.073
  YS02006561           JUNCTION      0.00  1163.42     0  02:27           0        4.84      -0.003
  YS02163301           JUNCTION      0.00   874.24     0  02:06           0        3.66       0.053
  YS02163601           JUNCTION      0.11  1181.69     0  02:07     0.00238        5.03       0.110
  YS02164001           JUNCTION      0.00  1181.74     0  02:07           0        5.03       0.052
  YSB1154              JUNCTION    494.82   494.82     0  02:30       0.922       0.922       0.168
  YSB1171              JUNCTION      0.00  1134.21     0  02:29           0        1.82       0.352
  YSB1174              JUNCTION    401.96   401.96     0  02:30       0.705       0.705       0.189
  YSB6556              JUNCTION      0.00   494.92     0  02:30           0       0.923       0.137
  CC-1                 OUTFALL       0.00   683.00     0  02:10           0        4.52       0.000
  CC-2                 OUTFALL       0.00   683.00     0  02:10           0        4.52       0.000
  JK-1                 OUTFALL       0.00  1000.00     0  01:40           0        2.56       0.000
  JK-2                 OUTFALL       0.00  1000.00     0  01:40           0        2.56       0.000
  WSC                  OUTFALL       0.00  1537.70     0  02:32           0        14.1       0.000
  CC-storage           STORAGE       0.00  2765.63     0  02:21           0        14.3      -0.176
  JK-storage           STORAGE       0.00  1698.26     0  02:21           0        5.03     -25.509
  XR-storage           STORAGE     200.00   200.00     0  00:00        4.32        4.92       0.001
  
  
  **********************
  Node Surcharge Summary
  **********************
  
  Surcharging occurs when water rises above the top of the highest conduit.
  ---------------------------------------------------------------------
                                               Max. Height   Min. Depth
                                   Hours       Above Crown    Below Rim
  Node                 Type      Surcharged         Meters       Meters
  ---------------------------------------------------------------------
  HS02004478           JUNCTION        0.69          0.667        0.273
  HS02004479           JUNCTION        0.84          0.892        0.158
  HS02004480           JUNCTION        0.89          0.951        0.149
  HS02004770           JUNCTION        0.77          0.720        0.000
  HS02004777           JUNCTION        0.77          0.780        0.000
  HS02004785           JUNCTION        0.72          0.790        0.000
  HS02004788           JUNCTION        0.71          0.720        0.000
  HS02004792           JUNCTION        0.85          0.900        0.000
  HS02004799           JUNCTION        1.02          1.060        0.000
  HS02004802           JUNCTION        0.91          1.092        0.118
  HS02004807           JUNCTION        0.88          1.220        0.000
  HS02004817           JUNCTION        1.51          1.714        0.026
  HS02004824           JUNCTION        0.71          1.310        0.000
  HS02004830           JUNCTION        0.68          1.291        0.039
  HS02004837           JUNCTION        0.62          1.214        0.126
  HS02004842           JUNCTION        0.79          1.520        0.000
  HS02004848           JUNCTION        0.60          1.203        0.167
  HS02004852           JUNCTION        0.62          1.269        0.151
  HS02004856           JUNCTION        0.61          1.257        0.043
  HS02004862           JUNCTION        0.65          1.300        0.000
  HS02004870           JUNCTION        0.67          1.306        0.094
  HS02004876           JUNCTION        0.75          1.401        0.159
  HS02004881           JUNCTION        0.73          1.144        0.306
  HS02004901           JUNCTION        0.77          0.720        0.000
  WS02004401           JUNCTION        1.87          0.941        0.719
  WS02004402           JUNCTION        1.91          0.876        0.864
  WS02004403           JUNCTION        1.92          0.800        1.230
  WS02004404           JUNCTION        2.12          0.804        1.976
  WS02004405           JUNCTION        2.07          0.748        2.052
  WS02004406           JUNCTION        2.03          0.632        1.818
  WS02004409           JUNCTION        1.40          0.420        1.940
  WS02004410           JUNCTION        1.28          0.322        2.218
  WS02004411           JUNCTION        1.16          0.221        2.309
  WS02004412           JUNCTION        1.05          0.117        2.193
  WS02004413           JUNCTION        1.58          0.152        2.048
  WS02006109           JUNCTION        2.71          1.820        0.000
  WS02006110           JUNCTION        2.57          1.508        0.342
  WS02006111           JUNCTION        1.57          1.006        0.864
  WS02006112           JUNCTION        2.61          1.680        0.000
  WS02006113           JUNCTION        1.58          1.073        0.857
  WS02006115           JUNCTION        1.76          1.034        1.216
  WS02006116           JUNCTION        1.78          0.972        1.318
  WS02006228           JUNCTION        2.71          2.200        0.000
  WS02006229           JUNCTION        1.20          1.044        0.026
  WS02006230           JUNCTION        2.22          1.570        0.000
  WS02006231           JUNCTION        2.53          1.479        0.051
  WS02006232           JUNCTION        2.62          1.480        0.000
  WS02006234           JUNCTION        2.55          1.240        0.000
  WS02006235           JUNCTION        2.56          1.281        0.009
  WS02006238           JUNCTION        2.57          1.287        0.143
  WS02006239           JUNCTION        2.55          1.120        0.170
  WS02006240           JUNCTION        2.54          0.967        0.423
  WS02006242           JUNCTION        2.55          0.820        0.000
  WS02006243           JUNCTION        2.51          0.693        0.077
  WS02006245           JUNCTION        2.50          0.589        0.261
  WS02006247           JUNCTION        2.50          0.532        0.228
  WS02006248           JUNCTION        2.48          0.380        0.000
  WS02006249           JUNCTION        2.49          0.390        0.000
  WS02006251           JUNCTION        2.44          1.125        0.055
  WS02006252           JUNCTION        2.46          1.100        0.000
  WS02006253           JUNCTION        2.45          2.082        0.398
  WS02006256           JUNCTION        4.77          2.050        0.000
  WS02006280           JUNCTION        1.03          0.693        0.087
  WS02006284           JUNCTION        0.93          0.665        0.135
  WS02006287           JUNCTION        0.80          0.739        0.151
  YS02001580           JUNCTION        0.84          0.450        0.000
  YS02001583           JUNCTION        0.85          0.403        0.097
  YS02001586           JUNCTION        1.00          0.510        0.000
  YS02001590           JUNCTION        1.08          0.727        0.023
  YS02001593           JUNCTION        1.08          0.680        0.160
  YS02001596           JUNCTION        1.21          0.937        0.133
  YS02001600           JUNCTION        1.39          1.190        0.000
  YS02001601           JUNCTION        1.77          1.440        0.000
  YS02001602           JUNCTION        1.66          1.270        0.000
  YS02001605           JUNCTION        1.60          1.175        0.005
  YS02001607           JUNCTION        1.08          0.646        0.034
  YS02001610           JUNCTION        1.10          0.680        0.000
  YS02001613           JUNCTION        1.07          0.667        0.033
  YS02001616           JUNCTION        1.03          0.610        0.000
  YS02001619           JUNCTION        1.01          0.610        0.000
  YS02001622           JUNCTION        1.02          0.584        0.036
  YS02001625           JUNCTION        1.21          0.780        0.000
  YS02001629           JUNCTION        0.96          0.470        0.000
  YS02001633           JUNCTION        1.26          0.971        0.089
  YS02001641           JUNCTION        1.20          0.943        0.157
  YS02001644           JUNCTION        1.17          0.920        0.000
  YS02001647           JUNCTION        0.98          0.764        0.136
  YS02001649           JUNCTION        1.10          1.003        0.047
  YS02001652           JUNCTION        0.94          0.824        0.306
  YS02001655           JUNCTION        0.80          0.652        0.548
  YS02001658           JUNCTION        0.45          0.549        0.751
  YS02001661           JUNCTION        0.10          0.132        1.258
  YS02001748           JUNCTION        0.38          0.236        0.954
  YS02001751           JUNCTION        0.67          0.501        0.699
  YS02001754           JUNCTION        0.88          0.702        0.448
  YS02001757           JUNCTION        1.19          1.077        0.133
  YS02001759           JUNCTION        1.09          1.050        0.160
  YS02001762           JUNCTION        1.07          1.020        0.130
  YS02001765           JUNCTION        1.03          0.982        0.118
  YS02001767           JUNCTION        1.01          0.956        0.074
  YS02001770           JUNCTION        0.97          0.920        0.000
  YS02001774           JUNCTION        1.06          0.997        0.053
  YS02001779           JUNCTION        0.87          0.680        0.000
  YS02001783           JUNCTION        0.73          1.388        0.212
  YS02001784           JUNCTION        0.71          1.433        0.057
  YS02001786           JUNCTION        0.57          1.282        0.148
  YS02001788           JUNCTION        0.17          1.232        0.248
  YS02001790           JUNCTION        0.24          1.157        0.000
  YS02001791           JUNCTION        0.23          0.899        1.021
  YS02001793           JUNCTION        0.31          1.113        1.487
  YS02001882           JUNCTION        0.65          0.649        0.181
  YS02001884           JUNCTION        0.67          0.691        0.179
  YS02001887           JUNCTION        0.71          0.777        0.173
  YS02001890           JUNCTION        0.73          0.760        0.000
  YS02001895           JUNCTION        0.64          0.566        0.184
  YS02001898           JUNCTION        0.63          0.534        0.206
  YS02001901           JUNCTION        0.69          0.680        0.190
  YS02001904           JUNCTION        0.68          0.636        0.214
  YS02001907           JUNCTION        1.06          0.950        0.000
  YS02001910           JUNCTION        0.76          0.935        0.165
  YS02001915           JUNCTION        0.65          0.869        0.131
  YS02001918           JUNCTION        0.55          0.550        0.260
  YS02001920           JUNCTION        0.57          0.632        0.508
  YS02001923           JUNCTION        0.15          0.177        0.643
  YS02001926           JUNCTION        0.23          0.219        0.681
  YS02006553           JUNCTION        1.09          1.093        0.097
  YS02006556           JUNCTION        0.89          1.184        0.166
  YS02006558           JUNCTION        0.87          1.227        0.173
  YS02006561           JUNCTION        0.51          0.828        0.322
  YS02163301           JUNCTION        1.23          0.911        0.119
  YS02163601           JUNCTION        1.31          1.026        0.054
  YS02164001           JUNCTION        1.20          0.947        0.153
  YSB1154              JUNCTION        1.17          1.265        0.135
  YSB1171              JUNCTION        1.17          1.100        0.000
  YSB1174              JUNCTION        1.07          1.108        0.142
  YSB6556              JUNCTION        0.98          1.061        0.039
  
  
  *********************
  Node Flooding Summary
  *********************
  
  Flooding refers to all water that overflows a node, whether it ponds or not.
  --------------------------------------------------------------------------
                                                             Total   Maximum
                                 Maximum   Time of Max       Flood    Ponded
                        Hours       Rate    Occurrence      Volume     Depth
  Node                 Flooded       LPS   days hr:min    10^6 ltr    Meters
  --------------------------------------------------------------------------
  HS02004770              0.56   1530.26      0  02:30       1.167     0.000
  HS02004777              0.01     23.27      0  02:08       0.000     0.000
  HS02004785              0.01    196.66      0  02:07       0.000     0.000
  HS02004788              0.01    165.45      0  02:08       0.000     0.000
  HS02004792              0.54   2165.51      0  02:30       1.981     0.000
  HS02004799              0.30    260.07      0  02:30       0.153     0.000
  HS02004807              0.18    487.25      0  02:30       0.193     0.000
  HS02004824              0.09    175.16      0  02:30       0.033     0.000
  HS02004842              0.08    146.10      0  02:30       0.022     0.000
  HS02004862              0.07    122.72      0  02:30       0.016     0.000
  HS02004901              0.65    717.13      0  02:30       1.047     0.000
  WS02006109              0.59    325.33      0  02:30       0.399     0.000
  WS02006112              0.01   1153.65      0  00:00       0.035     0.000
  WS02006228              0.01      0.25      0  02:23       0.000     0.000
  WS02006230              0.94    572.60      0  02:24       1.352     0.000
  WS02006232              0.21      0.73      0  02:39       0.000     0.000
  WS02006234              0.99    128.48      0  02:10       0.316     0.000
  WS02006242              1.14    137.48      0  02:41       0.496     0.000
  WS02006248              1.50    339.11      0  02:40       1.619     0.000
  WS02006249              2.44   1315.48      0  02:30       5.240     0.000
  WS02006252              0.67    720.08      0  02:29       0.891     0.000
  WS02006256              0.87    291.93      0  03:00       0.592     0.000
  YS02001580              0.01     10.20      0  02:04       0.000     0.000
  YS02001586              0.66    618.42      0  02:30       0.604     0.000
  YS02001600              0.01      0.91      0  02:04       0.000     0.000
  YS02001601              0.94   1446.69      0  02:30       1.969     0.000
  YS02001602              0.85     61.99      0  02:39       0.177     0.000
  YS02001610              0.76    925.62      0  02:30       1.078     0.000
  YS02001616              0.01      1.03      0  02:29       0.000     0.000
  YS02001619              0.01      9.39      0  02:30       0.000     0.000
  YS02001625              0.75   1496.33      0  02:30       2.094     0.000
  YS02001629              0.12    101.05      0  02:30       0.017     0.000
  YS02001644              0.38   1719.09      0  02:30       0.986     0.000
  YS02001770              0.01      0.30      0  02:29       0.000     0.000
  YS02001779              0.29    816.75      0  02:30       0.435     0.000
  YS02001790              0.01    202.46      0  02:57       0.000     0.000
  YS02001890              0.23    339.32      0  02:29       0.135     0.000
  YS02001907              0.49   2222.15      0  02:30       1.997     0.000
  YSB1171                 0.42   1134.15      0  02:30       0.939     0.000
  JK-storage              0.19   1095.57      0  02:16       0.603     0.000
  
  
  **********************
  Storage Volume Summary
  **********************
  
  --------------------------------------------------------------------------------------------------
                         Average     Avg  Evap Exfil       Maximum     Max    Time of Max    Maximum
                          Volume    Pcnt  Pcnt  Pcnt        Volume    Pcnt     Occurrence    Outflow
  Storage Unit           1000 m3    Full  Loss  Loss       1000 m3    Full    days hr:min        LPS
  --------------------------------------------------------------------------------------------------
  CC-storage               2.761      43     0     0         5.594      87       0  02:48    1766.00
  JK-storage               0.121      41     0     0         0.291     100       0  02:16    2300.00
  XR-storage               0.909      63     0     0         1.039      72       0  06:00     190.00
  
  
  ***********************
  Outfall Loading Summary
  ***********************
  
  -----------------------------------------------------------
                         Flow       Avg       Max       Total
                         Freq      Flow      Flow      Volume
  Outfall Node           Pcnt       LPS       LPS    10^6 ltr
  -----------------------------------------------------------
  CC-1                  32.34    683.00    683.00       4.517
  CC-2                  32.34    683.00    683.00       4.517
  JK-1                  18.69    749.08   1000.00       2.557
  JK-2                  18.69    749.08   1000.00       2.557
  WSC                   99.99    710.32   1537.70      14.095
  -----------------------------------------------------------
  System                40.41   3574.48   1537.70      28.244
  
  
  ********************
  Link Flow Summary
  ********************
  
  -----------------------------------------------------------------------------
                                 Maximum  Time of Max   Maximum    Max/    Max/
                                  |Flow|   Occurrence   |Veloc|    Full    Full
  Link                 Type          LPS  days hr:min     m/sec    Flow   Depth
  -----------------------------------------------------------------------------
  1                    CONDUIT   1537.70     0  02:32      3.72    0.54    0.52
  HS02004478WS02006287 CONDUIT   2303.94     0  02:23      2.59    0.64    1.00
  HS02004479HS02004480 CONDUIT    378.13     0  02:15      0.54    0.37    1.00
  HS02004480HS02004478 CONDUIT   2016.15     0  02:11      2.88    8.49    1.00
  HS02004770HS02004777 CONDUIT    681.81     0  02:08      0.97    1.25    1.00
  HS02004777HS02004785 CONDUIT    682.59     0  02:08      1.04    0.84    1.00
  HS02004785HS02004788 CONDUIT    683.82     0  02:08      1.35    5.16    1.00
  HS02004788HS02004792 CONDUIT    885.96     0  02:08      1.46    0.59    1.00
  HS02004792HS02004799 CONDUIT   1566.39     0  02:10      2.24    0.96    1.00
  HS02004799HS02004480 CONDUIT   1705.93     0  02:11      2.44    2.16    1.00
  HS02004802HS02004478 CONDUIT   1233.61     0  02:30      1.76    1.09    1.00
  HS02004807HS02004802 CONDUIT   1233.36     0  02:30      1.76    2.35    1.00
  HS02004817HS02004807 CONDUIT   1196.99     0  02:30      1.71    0.71    1.00
  HS02004817HS02004824 CONDUIT   1196.36     0  02:31      1.71    0.54    1.00
  HS02004824HS02004830 CONDUIT    584.99     0  02:30      0.84    0.77    1.00
  HS02004830HS02004837 CONDUIT    584.83     0  02:30      0.84    0.58    1.00
  HS02004837HS02004842 CONDUIT    689.58     0  02:11      0.99    0.41    1.00
  HS02004842HS02004848 CONDUIT    690.33     0  02:11      1.06    0.40    1.00
  HS02004848HS02004852 CONDUIT    896.16     0  02:11      1.48    1.01    1.00
  HS02004852HS02004856 CONDUIT    840.46     0  02:11      1.39    0.96    1.00
  HS02004856HS02004862 CONDUIT    888.21     0  02:10      1.58    0.89    1.00
  HS02004862HS02004870 CONDUIT   1035.22     0  02:34      1.63    1.12    1.00
  HS02004870HS02004876 CONDUIT   1255.04     0  02:26      1.79    0.83    1.00
  HS02004876HS02004881 CONDUIT   1511.28     0  02:30      2.19   16.07    1.00
  HS02004881HS02006253 CONDUIT   1658.94     0  02:30      2.37    0.32    1.00
  HS02004901HS02004770 CONDUIT    265.79     0  02:42      0.38    1.00    1.00
  WS02001211WS02001212 CONDUIT    214.09     0  03:09      0.54    0.16    0.70
  WS02001212WS02001213 CONDUIT    220.26     0  03:09      1.04    0.34    0.57
  WS02001213WS02003059 CONDUIT    226.27     0  03:08      0.47    0.37    0.90
  WS02003059WS02003060 CONDUIT    234.65     0  03:08      0.67    0.15    0.82
  WS02003060WS02003069 CONDUIT   1536.51     0  02:31      2.09    0.60    0.62
  WS02003066WSF200     CONDUIT   1330.26     0  02:30      3.25    0.22    0.39
  WS02003067WS02003066 CONDUIT   1330.16     0  02:30      2.02    0.43    0.56
  WS02003069WS02003072 CONDUIT   1536.35     0  02:31      1.91    0.74    0.67
  WS02003072WS02003073 CONDUIT   1536.20     0  02:32      2.07    3.32    0.62
  WS02004138WS02004139 CONDUIT    191.01     0  00:29      2.14    0.04    0.42
  WS02004139WS02001211 CONDUIT    197.96     0  03:10      0.53    0.25    0.61
  WS02004401WS02004402 CONDUIT   1331.03     0  02:30      2.07    1.60    1.00
  WS02004402WS02004403 CONDUIT   1331.08     0  02:30      1.84    1.91    1.00
  WS02004403WS02004404 CONDUIT   1331.65     0  02:30      1.70    0.96    1.00
  WS02004404WS02004405 CONDUIT   1331.69     0  02:30      1.85   13.05    1.00
  WS02004405WS02004406 CONDUIT   1331.47     0  02:30      1.73    2.63    1.00
  WS02004406WS02004407 CONDUIT   1331.47     0  02:30      1.70    0.60    0.99
  WS02004407WS02004409 CONDUIT   1329.86     0  02:30      1.70    0.47    0.99
  WS02004409WS02004410 CONDUIT   1330.06     0  02:30      1.69    1.72    1.00
  WS02004410WS02004411 CONDUIT   1329.87     0  02:30      1.69    1.82    1.00
  WS02004411WS02004412 CONDUIT   1329.80     0  02:30      1.69    1.89    1.00
  WS02004412WS02004413 CONDUIT   1329.92     0  02:30      1.69    0.89    1.00
  WS02004413WS02003067 CONDUIT   1329.88     0  02:30      2.05    0.57    0.77
  WS02006109WS02006110 CONDUIT   1306.78     0  00:00      3.15    2.51    1.00
  WS02006110WS02006113 CONDUIT   1126.11     0  02:46      2.24    1.02    1.00
  WS02006111WS02006112 CONDUIT   2307.30     0  00:00      9.18    1.10    1.00
  WS02006112WS02006115 CONDUIT   2152.75     0  00:00      2.85    1.27    1.00
  WS02006113WS02006111 CONDUIT   1176.04     0  00:00      2.63    1.41    1.00
  WS02006115WS02006116 CONDUIT   1330.89     0  02:29      1.81    1.71    1.00
  WS02006116WS02004401 CONDUIT   1331.11     0  02:30      2.21    1.83    1.00
  WS02006228WS02006109 CONDUIT   1287.87     0  02:24      2.56    5.63    1.00
  WS02006229WS02006228 CONDUIT   1288.38     0  02:24      2.56    4.27    1.00
  WS02006230WS02006229 CONDUIT   1015.17     0  02:24      2.64   22.59    1.00
  WS02006231WS02006230 CONDUIT    537.84     0  03:50      1.40    8.16    1.00
  WS02006232WS02006231 CONDUIT    536.15     0  03:50      1.39    1.12    1.00
  WS02006234WS02006232 CONDUIT    533.86     0  03:50      1.39    1.08    1.00
  WS02006235WS02006234 CONDUIT    529.56     0  03:50      1.38    5.59    1.00
  WS02006238WS02006235 CONDUIT    422.81     0  04:00      1.22    0.94    1.00
  WS02006239WS02006238 CONDUIT    418.76     0  03:50      1.09    1.34    1.00
  WS02006240WS02006239 CONDUIT    418.74     0  03:50      1.09    1.32    1.00
  WS02006242WS02006240 CONDUIT    418.72     0  03:50      1.09    1.66    1.00
  WS02006243WS02006242 CONDUIT    418.74     0  03:50      1.13    0.89    1.00
  WS02006245WS02006243 CONDUIT    418.73     0  03:50      1.13    1.24    1.00
  WS02006247WS02006245 CONDUIT    418.72     0  03:50      1.09    3.32    1.00
  WS02006248WS02006247 CONDUIT    418.72     0  03:50      1.12    0.91    1.00
  WS02006249WS02006248 CONDUIT    418.75     0  03:50      1.09    2.29    1.00
  WS02006251WS02006249 CONDUIT   1376.42     0  02:30      3.58    3.97    1.00
  WS02006252WS02006251 CONDUIT    410.91     0  02:00      3.70    1.51    1.00
  WS02006253WS02006251 CONDUIT   1696.39     0  02:29      4.41    5.09    1.00
  WS02006256WS02006235 CONDUIT    192.44     0  03:52      2.72    2.04    1.00
  WS02006280WS02006229 CONDUIT   2304.62     0  02:24      4.01    0.49    1.00
  WS02006284WS02006280 CONDUIT   2303.10     0  02:23      3.00    0.96    1.00
  WS02006287WS02006284 CONDUIT   2303.46     0  02:24      2.93    1.07    1.00
  WSF200WS02003060     CONDUIT   1330.37     0  02:30      2.29    0.30    0.51
  YS02001580YS02001583 CONDUIT     56.68     0  02:04      0.46    0.22    1.00
  YS02001583YS02001586 CONDUIT     86.58     0  02:04      0.36    0.13    1.00
  YS02001586YS02001590 CONDUIT    317.98     0  02:38      1.23    0.56    1.00
  YS02001590YS02001593 CONDUIT    318.06     0  02:38      1.12    2.00    1.00
  YS02001593YS02001596 CONDUIT    318.07     0  02:37      1.71    0.50    1.00
  YS02001596YS02001600 CONDUIT    318.08     0  02:41      1.27    0.62    1.00
  YS02001600YS02001601 CONDUIT    317.94     0  02:41      1.12    0.55    1.00
  YS02001601YS02001602 CONDUIT    490.73     0  02:04      1.74    1.77    1.00
  YS02001602YS02001605 CONDUIT    490.61     0  02:04      1.74   10.38    1.00
  YS02001605YS02001607 CONDUIT    490.65     0  02:04      1.74    2.69    1.00
  YS02001607YS02001610 CONDUIT    490.40     0  02:04      0.62    0.47    1.00
  YS02001610YS02001613 CONDUIT    589.78     0  02:30      0.75    0.68    1.00
  YS02001613YS02001616 CONDUIT    589.00     0  02:30      0.75    0.50    1.00
  YS02001616YS02001619 CONDUIT    589.62     0  02:30      0.75    1.02    1.00
  YS02001619YS02001622 CONDUIT   1047.87     0  02:30      1.33    1.54    1.00
  YS02001622YS02001625 CONDUIT   1047.64     0  02:30      1.33    0.56    1.00
  YS02001625YS02001629 CONDUIT    874.16     0  02:06      1.11    0.42    1.00
  YS02001629YS02163301 CONDUIT    874.24     0  02:06      1.11    1.08    1.00
  YS02001633YS02163601 CONDUIT   1181.58     0  02:07      1.50    1.24    1.00
  YS02001641YS02001644 CONDUIT   1181.27     0  02:07      1.50    3.82    1.00
  YS02001644YS02001647 CONDUIT   1466.05     0  02:07      1.94    0.86    1.00
  YS02001647YS02001649 CONDUIT   1468.87     0  02:07      2.07    0.78    1.00
  YS02001649YS02001757 CONDUIT   1666.39     0  02:09      2.24    1.01    1.00
  YS02001652YS02001649 CONDUIT    978.87     0  02:30      1.25    0.49    1.00
  YS02001655YS02001652 CONDUIT    978.98     0  02:30      1.26    0.48    1.00
  YS02001658YS02001655 CONDUIT    978.43     0  02:30      1.75    0.42    1.00
  YS02001661YS02001658 CONDUIT    978.39     0  02:30      2.03    0.38    1.00
  YS02001664YS02001661 CONDUIT    978.18     0  02:30      1.86    0.31    0.80
  YS02001745YS02001748 CONDUIT    597.83     0  02:30      1.86    0.23    0.94
  YS02001748YS02001751 CONDUIT    597.68     0  02:30      1.49    0.30    1.00
  YS02001751YS02001754 CONDUIT    598.15     0  02:30      1.37    0.29    1.00
  YS02001754YS02001757 CONDUIT    598.21     0  02:30      0.76    0.24    1.00
  YS02001757CaochengTiaoxuchi CONDUIT   2765.63     0  02:21      3.52    1.20    1.00
  YS02001759YS02001757 CONDUIT   1205.52     0  02:30      1.53    0.86    1.00
  YS02001762YS02001759 CONDUIT    641.33     0  02:20      0.82    0.74    1.00
  YS02001765YS02001762 CONDUIT    641.14     0  02:20      0.82    0.60    1.00
  YS02001767YS02001765 CONDUIT    642.39     0  02:20      0.82    0.81    1.00
  YS02001770YS02001767 CONDUIT    642.03     0  02:20      0.82    2.54    1.00
  YS02001774YS02001770 CONDUIT    816.55     0  02:30      1.04    0.52    1.00
  YS02001779YS02001774 CONDUIT    816.75     0  02:30      1.04    0.41    1.00
  YS02001783YS02001784 CONDUIT   1163.64     0  02:27      2.31    1.60    1.00
  YS02001784YS02001785 CONDUIT   1164.40     0  02:27      2.32    2.71    1.00
  YS02001786YS02001788 CONDUIT   1164.48     0  02:27      2.48    2.24    1.00
  YS02001788YS02001790 CONDUIT   1210.95     0  02:21      2.73    0.89    1.00
  YS02001790YS02001791 CONDUIT   1360.68     0  02:21      3.49    1.48    1.00
  YS02001791YS02001793 CONDUIT   1414.11     0  02:21      6.73    0.61    1.00
  YS02001793JiankangQianchi CONDUIT   1698.26     0  02:21     24.67    0.13    1.00
  YS02001882YS02001884 CONDUIT     28.12     0  02:09      0.15    0.03    1.00
  YS02001884YS02001887 CONDUIT     36.98     0  02:57      0.11    0.05    1.00
  YS02001887YS02001890 CONDUIT    856.18     0  02:29      1.09    1.47    1.00
  YS02001890YS02001895 CONDUIT    518.37     0  02:32      0.66    0.24    1.00
  YS02001895YS02001898 CONDUIT    518.49     0  02:31      0.66    0.90    1.00
  YS02001898YS02001901 CONDUIT    518.68     0  02:31      0.66    0.33    1.00
  YS02001901YS02001904 CONDUIT    518.47     0  02:32      0.66    0.80    1.00
  YS02001904YS02001907 CONDUIT    518.52     0  02:32      0.66    0.18    1.00
  YS02001907YS02006553 CONDUIT    801.96     0  02:44      0.89    0.94    1.00
  YS02001910YS02001907 CONDUIT   1648.82     0  02:30      2.10    0.93    1.00
  YS02001915YS02001910 CONDUIT   1648.56     0  02:30      2.10    0.82    1.00
  YS02001918YS02001915 CONDUIT    563.75     0  02:30      0.72    0.31    1.00
  YS02001920YS02001918 CONDUIT    563.60     0  02:30      0.72    0.55    1.00
  YS02001923YS02001920 CONDUIT    560.58     0  02:30      0.71    0.25    1.00
  YS02001926YS02001923 CONDUIT    559.34     0  02:30      0.93    0.80    1.00
  YS02001929YS02001926 CONDUIT    558.63     0  02:30      1.05    0.27    0.99
  YS02006553YS02006556 CONDUIT    800.91     0  02:44      1.02    0.69    1.00
  YS02006556YS02006558 CONDUIT    802.07     0  02:44      1.02    0.63    1.00
  YS02006558YS02006561 CONDUIT   1163.42     0  02:27      4.11    2.57    1.00
  YS02006561YS02001783 CONDUIT   1163.47     0  02:27      2.31    0.60    1.00
  YS02163301YS02001633 CONDUIT    874.73     0  02:06      1.11    0.82    1.00
  YS02163601YS02164001 CONDUIT   1181.74     0  02:07      1.50    1.05    1.00
  YS02164001YS02001641 CONDUIT   1182.12     0  02:07      1.51    1.61    1.00
  YSB1154YSB6556       CONDUIT    494.92     0  02:30      1.29    0.89    1.00
  YSB1171HS02004479    CONDUIT    378.68     0  02:15      0.75    0.25    1.00
  YSB1174YSB1171       CONDUIT    401.93     0  02:30      1.04    0.62    1.00
  YSB6556YSB1171       CONDUIT    495.00     0  02:30      1.29    0.51    1.00
  CC-R1                PUMP       683.00     0  02:10              1.00
  CC-R2                PUMP       683.00     0  02:10              1.00
  CC-S1                PUMP       200.00     0  00:40              1.00
  CC-S2                PUMP       200.00     0  02:00              1.00
  JK-R1                PUMP      1000.00     0  01:40              1.00
  JK-R2                PUMP      1000.00     0  01:40              1.00
  JK-S                 PUMP       300.00     0  01:40              1.00
  XR-1                 PUMP        95.00     0  00:10              1.00
  XR-2                 PUMP        95.00     0  00:29              1.00
  XR-3                 PUMP         0.00     0  00:00              0.00
  XR-4                 PUMP         0.00     0  00:00              0.00
  
  
  ***************************
  Flow Classification Summary
  ***************************
  
  -------------------------------------------------------------------------------------
                      Adjusted    ---------- Fraction of Time in Flow Class ---------- 
                       /Actual         Up    Down  Sub   Sup   Up    Down  Norm  Inlet 
  Conduit               Length    Dry  Dry   Dry   Crit  Crit  Crit  Crit  Ltd   Ctrl  
  -------------------------------------------------------------------------------------
  1                       1.00   0.00  0.00  0.00  0.00  1.00  0.00  0.00  0.39  0.00
  HS02004478WS02006287    1.00   0.26  0.00  0.00  0.41  0.33  0.00  0.00  0.42  0.00
  HS02004479HS02004480    1.00   0.01  0.00  0.00  0.99  0.00  0.00  0.00  0.14  0.00
  HS02004480HS02004478    1.00   0.18  0.00  0.00  0.34  0.00  0.00  0.48  0.00  0.00
  HS02004770HS02004777    1.00   0.00  0.17  0.00  0.83  0.00  0.00  0.00  0.03  0.00
  HS02004777HS02004785    1.00   0.00  0.00  0.00  1.00  0.00  0.00  0.00  0.15  0.00
  HS02004785HS02004788    1.00   0.00  0.00  0.00  1.00  0.00  0.00  0.00  0.00  0.00
  HS02004788HS02004792    1.00   0.00  0.00  0.00  1.00  0.00  0.00  0.00  0.83  0.00
  HS02004792HS02004799    1.00   0.00  0.00  0.00  1.00  0.00  0.00  0.00  0.77  0.00
  HS02004799HS02004480    1.00   0.00  0.01  0.00  0.74  0.00  0.24  0.00  0.00  0.00
  HS02004802HS02004478    1.00   0.18  0.02  0.00  0.80  0.00  0.00  0.00  0.03  0.00
  HS02004807HS02004802    1.00   0.17  0.00  0.00  0.77  0.00  0.00  0.06  0.00  0.00
  HS02004817HS02004807    1.00   0.00  0.17  0.00  0.83  0.00  0.00  0.00  0.02  0.00
  HS02004817HS02004824    1.00   0.00  0.00  0.00  1.00  0.00  0.00  0.00  0.71  0.00
  HS02004824HS02004830    1.00   0.00  0.00  0.00  1.00  0.00  0.00  0.00  0.02  0.00
  HS02004830HS02004837    1.00   0.00  0.00  0.00  1.00  0.00  0.00  0.00  0.79  0.00
  HS02004837HS02004842    1.00   0.00  0.00  0.00  1.00  0.00  0.00  0.00  0.14  0.00
  HS02004842HS02004848    1.00   0.00  0.17  0.00  0.83  0.00  0.00  0.00  0.37  0.00
  HS02004848HS02004852    1.00   0.17  0.00  0.00  0.83  0.00  0.00  0.00  0.57  0.00
  HS02004852HS02004856    1.00   0.17  0.03  0.00  0.80  0.00  0.00  0.00  0.52  0.00
  HS02004856HS02004862    1.00   0.00  0.27  0.00  0.73  0.00  0.00  0.00  0.62  0.00
  HS02004862HS02004870    1.00   0.00  0.00  0.00  1.00  0.00  0.00  0.00  0.04  0.00
  HS02004870HS02004876    1.00   0.00  0.00  0.00  1.00  0.00  0.00  0.00  0.77  0.00
  HS02004876HS02004881    1.00   0.00  0.00  0.00  0.74  0.26  0.00  0.00  0.00  0.00
  HS02004881HS02006253    1.00   0.02  0.00  0.00  0.81  0.00  0.00  0.17  0.41  0.00
  HS02004901HS02004770    1.00   0.17  0.00  0.00  0.83  0.00  0.00  0.00  0.00  0.00
  WS02001211WS02001212    1.00   0.00  0.01  0.00  0.99  0.00  0.00  0.00  0.00  0.00
  WS02001212WS02001213    1.00   0.01  0.00  0.00  0.54  0.00  0.46  0.00  0.00  0.00
  WS02001213WS02003059    1.00   0.00  0.00  0.00  1.00  0.00  0.00  0.00  0.00  0.00
  WS02003059WS02003060    1.00   0.00  0.00  0.00  1.00  0.00  0.00  0.00  0.04  0.00
  WS02003060WS02003069    1.00   0.00  0.00  0.00  0.99  0.01  0.00  0.00  0.36  0.00
  WS02003066WSF200        1.00   0.12  0.00  0.00  0.00  0.88  0.00  0.00  0.39  0.00
  WS02003067WS02003066    1.00   0.03  0.08  0.00  0.90  0.00  0.00  0.00  0.00  0.00
  WS02003069WS02003072    1.00   0.00  0.00  0.00  1.00  0.00  0.00  0.00  0.43  0.00
  WS02003072WS02003073    1.00   0.00  0.00  0.00  0.00  0.00  0.00  1.00  0.00  0.00
  WS02004138WS02004139    1.00   0.01  0.00  0.00  0.99  0.00  0.00  0.00  0.97  0.00
  WS02004139WS02001211    1.00   0.00  0.00  0.00  1.00  0.00  0.00  0.00  0.01  0.00
  WS02004401WS02004402    1.00   0.00  0.00  0.00  1.00  0.00  0.00  0.00  0.00  0.00
  WS02004402WS02004403    1.00   0.00  0.00  0.00  1.00  0.00  0.00  0.00  0.00  0.00
  WS02004403WS02004404    1.00   0.00  0.00  0.00  1.00  0.00  0.00  0.00  0.00  0.00
  WS02004404WS02004405    1.00   0.00  0.00  0.00  1.00  0.00  0.00  0.00  0.00  0.00
  WS02004405WS02004406    1.00   0.00  0.00  0.00  1.00  0.00  0.00  0.00  0.00  0.00
  WS02004406WS02004407    1.00   0.00  0.00  0.00  1.00  0.00  0.00  0.00  0.01  0.00
  WS02004407WS02004409    1.00   0.00  0.00  0.00  1.00  0.00  0.00  0.00  0.76  0.00
  WS02004409WS02004410    1.00   0.00  0.00  0.00  1.00  0.00  0.00  0.00  0.05  0.00
  WS02004410WS02004411    1.00   0.00  0.00  0.00  1.00  0.00  0.00  0.00  0.03  0.00
  WS02004411WS02004412    1.00   0.00  0.00  0.00  1.00  0.00  0.00  0.00  0.01  0.00
  WS02004412WS02004413    1.00   0.00  0.00  0.00  1.00  0.00  0.00  0.00  0.02  0.00
  WS02004413WS02003067    1.00   0.01  0.02  0.00  0.00  0.00  0.97  0.00  0.00  0.00
  WS02006109WS02006110    1.00   0.00  0.00  0.00  1.00  0.00  0.00  0.00  0.00  0.00
  WS02006110WS02006113    1.00   0.00  0.00  0.00  1.00  0.00  0.00  0.00  0.00  0.00
  WS02006111WS02006112    1.00   0.00  0.00  0.00  1.00  0.00  0.00  0.00  0.65  0.00
  WS02006112WS02006115    1.00   0.00  0.00  0.00  1.00  0.00  0.00  0.00  0.00  0.00
  WS02006113WS02006111    1.00   0.00  0.00  0.00  0.33  0.67  0.00  0.00  0.08  0.00
  WS02006115WS02006116    1.00   0.00  0.00  0.00  1.00  0.00  0.00  0.00  0.00  0.00
  WS02006116WS02004401    1.00   0.00  0.00  0.00  1.00  0.00  0.00  0.00  0.00  0.00
  WS02006228WS02006109    1.00   0.00  0.00  0.00  1.00  0.00  0.00  0.00  0.00  0.00
  WS02006229WS02006228    1.00   0.00  0.00  0.00  1.00  0.00  0.00  0.00  0.00  0.00
  WS02006230WS02006229    1.00   0.00  0.00  0.00  1.00  0.00  0.00  0.00  0.02  0.00
  WS02006231WS02006230    1.00   0.00  0.00  0.00  0.56  0.00  0.44  0.00  0.00  0.00
  WS02006232WS02006231    1.00   0.00  0.00  0.00  0.98  0.00  0.01  0.00  0.01  0.00
  WS02006234WS02006232    1.00   0.00  0.00  0.00  1.00  0.00  0.00  0.00  0.15  0.00
  WS02006235WS02006234    1.00   0.07  0.00  0.00  0.86  0.00  0.08  0.00  0.00  0.00
  WS02006238WS02006235    1.00   0.06  0.01  0.00  0.93  0.01  0.00  0.00  0.00  0.00
  WS02006239WS02006238    1.00   0.05  0.00  0.00  0.93  0.00  0.00  0.01  0.14  0.00
  WS02006240WS02006239    1.00   0.05  0.00  0.00  0.82  0.00  0.00  0.13  0.00  0.00
  WS02006242WS02006240    1.00   0.02  0.03  0.00  0.93  0.00  0.02  0.00  0.00  0.00
  WS02006243WS02006242    1.00   0.01  0.00  0.00  0.94  0.00  0.00  0.05  0.30  0.00
  WS02006245WS02006243    1.00   0.01  0.00  0.00  0.90  0.00  0.00  0.09  0.00  0.00
  WS02006247WS02006245    1.00   0.01  0.00  0.00  0.95  0.00  0.00  0.04  0.00  0.00
  WS02006248WS02006247    1.00   0.01  0.00  0.00  0.96  0.00  0.00  0.03  0.31  0.00
  WS02006249WS02006248    1.00   0.00  0.01  0.00  0.82  0.00  0.17  0.00  0.00  0.00
  WS02006251WS02006249    1.00   0.00  0.00  0.00  1.00  0.00  0.00  0.00  0.40  0.00
  WS02006252WS02006251    1.00   0.03  0.05  0.00  0.45  0.00  0.47  0.00  0.00  0.00
  WS02006253WS02006251    1.00   0.01  0.01  0.00  0.97  0.00  0.00  0.00  0.00  0.00
  WS02006256WS02006235    1.00   0.06  0.00  0.00  0.93  0.01  0.00  0.00  0.00  0.00
  WS02006280WS02006229    1.00   0.21  0.00  0.00  0.28  0.04  0.00  0.47  0.01  0.00
  WS02006284WS02006280    1.00   0.21  0.00  0.00  0.21  0.02  0.00  0.57  0.00  0.00
  WS02006287WS02006284    1.00   0.09  0.16  0.00  0.31  0.43  0.00  0.00  0.50  0.00
  WSF200WS02003060        1.00   0.00  0.13  0.00  0.36  0.51  0.00  0.00  0.37  0.00
  YS02001580YS02001583    1.00   0.48  0.18  0.00  0.33  0.00  0.00  0.00  0.48  0.00
  YS02001583YS02001586    1.00   0.20  0.41  0.00  0.39  0.00  0.00  0.00  0.49  0.00
  YS02001586YS02001590    1.00   0.17  0.00  0.00  0.67  0.05  0.00  0.11  0.49  0.00
  YS02001590YS02001593    1.00   0.17  0.02  0.00  0.23  0.00  0.58  0.00  0.00  0.00
  YS02001593YS02001596    1.00   0.19  0.00  0.00  0.26  0.01  0.00  0.54  0.03  0.00
  YS02001596YS02001600    1.00   0.19  0.00  0.00  0.37  0.03  0.00  0.41  0.06  0.00
  YS02001600YS02001601    1.00   0.18  0.02  0.00  0.80  0.00  0.00  0.00  0.43  0.00
  YS02001601YS02001602    1.00   0.17  0.02  0.00  0.81  0.00  0.00  0.00  0.00  0.00
  YS02001602YS02001605    1.00   0.19  0.00  0.00  0.81  0.00  0.00  0.00  0.00  0.00
  YS02001605YS02001607    1.00   0.20  0.00  0.00  0.80  0.00  0.00  0.00  0.00  0.00
  YS02001607YS02001610    1.00   0.18  0.02  0.00  0.80  0.00  0.00  0.00  0.01  0.00
  YS02001610YS02001613    1.00   0.18  0.00  0.00  0.82  0.00  0.00  0.00  0.00  0.00
  YS02001613YS02001616    1.00   0.17  0.00  0.00  0.83  0.00  0.00  0.00  0.00  0.00
  YS02001616YS02001619    1.00   0.17  0.00  0.00  0.83  0.00  0.00  0.00  0.00  0.00
  YS02001619YS02001622    1.00   0.17  0.00  0.00  0.83  0.00  0.00  0.00  0.04  0.00
  YS02001622YS02001625    1.00   0.17  0.00  0.00  0.83  0.00  0.00  0.00  0.04  0.00
  YS02001625YS02001629    1.00   0.17  0.13  0.00  0.31  0.00  0.38  0.00  0.00  0.00
  YS02001629YS02163301    1.00   0.23  0.03  0.00  0.74  0.00  0.00  0.00  0.00  0.00
  YS02001633YS02163601    1.00   0.00  0.00  0.00  1.00  0.00  0.00  0.00  0.19  0.00
  YS02001641YS02001644    1.00   0.00  0.00  0.00  1.00  0.00  0.00  0.00  0.00  0.00
  YS02001644YS02001647    1.00   0.00  0.28  0.00  0.72  0.00  0.00  0.00  0.00  0.00
  YS02001647YS02001649    1.00   0.00  0.28  0.00  0.46  0.25  0.00  0.00  0.40  0.00
  YS02001649YS02001757    1.00   0.00  0.00  0.00  0.72  0.28  0.00  0.00  0.41  0.00
  YS02001652YS02001649    1.00   0.00  0.00  0.00  0.90  0.10  0.00  0.00  0.60  0.00
  YS02001655YS02001652    1.00   0.00  0.00  0.00  0.36  0.01  0.00  0.62  0.07  0.00
  YS02001658YS02001655    1.00   0.00  0.21  0.00  0.45  0.34  0.00  0.00  0.52  0.00
  YS02001661YS02001658    1.00   0.20  0.00  0.00  0.29  0.51  0.00  0.00  0.53  0.00
  YS02001664YS02001661    1.00   0.17  0.00  0.00  0.68  0.16  0.00  0.00  0.77  0.00
  YS02001745YS02001748    1.00   0.00  0.00  0.00  0.21  0.00  0.00  0.79  0.05  0.00
  YS02001748YS02001751    1.00   0.00  0.00  0.00  0.66  0.34  0.00  0.00  0.61  0.00
  YS02001751YS02001754    1.00   0.00  0.00  0.00  0.32  0.02  0.00  0.67  0.04  0.00
  YS02001754YS02001757    1.00   0.00  0.00  0.00  1.00  0.00  0.00  0.00  0.70  0.00
  YS02001757CaochengTiaoxuchi    1.00   0.00  0.00  0.00  1.00  0.00  0.00  0.00  0.59  0.00
  YS02001759YS02001757    1.00   0.00  0.00  0.00  0.96  0.04  0.00  0.00  0.52  0.00
  YS02001762YS02001759    1.00   0.00  0.00  0.00  1.00  0.00  0.00  0.00  0.03  0.00
  YS02001765YS02001762    1.00   0.00  0.00  0.00  1.00  0.00  0.00  0.00  0.55  0.00
  YS02001767YS02001765    1.00   0.00  0.00  0.00  1.00  0.00  0.00  0.00  0.00  0.00
  YS02001770YS02001767    1.00   0.00  0.00  0.00  1.00  0.00  0.00  0.00  0.00  0.00
  YS02001774YS02001770    1.00   0.00  0.19  0.00  0.81  0.00  0.00  0.00  0.03  0.00
  YS02001779YS02001774    1.00   0.00  0.00  0.00  1.00  0.00  0.00  0.00  0.61  0.00
  YS02001783YS02001784    1.00   0.00  0.31  0.00  0.69  0.00  0.00  0.00  0.39  0.00
  YS02001784YS02001785    1.00   0.00  0.00  0.00  1.00  0.00  0.00  0.00  0.21  0.00
  YS02001786YS02001788    1.00   0.00  0.00  0.00  0.65  0.35  0.00  0.00  0.00  0.00
  YS02001788YS02001790    1.00   0.00  0.00  0.00  0.41  0.59  0.00  0.00  0.70  0.00
  YS02001790YS02001791    1.00   0.00  0.00  0.00  0.05  0.95  0.00  0.00  0.19  0.00
  YS02001791YS02001793    1.00   0.00  0.00  0.00  0.06  0.94  0.00  0.00  0.04  0.00
  YS02001793JiankangQianchi    1.00   0.00  0.00  0.00  0.81  0.18  0.00  0.00  0.77  0.00
  YS02001882YS02001884    1.00   0.23  0.02  0.00  0.75  0.00  0.00  0.00  0.00  0.00
  YS02001884YS02001887    1.00   0.02  0.11  0.00  0.87  0.00  0.00  0.00  0.00  0.00
  YS02001887YS02001890    1.00   0.00  0.00  0.00  0.99  0.00  0.01  0.00  0.00  0.00
  YS02001890YS02001895    1.00   0.00  0.26  0.00  0.74  0.00  0.00  0.00  0.00  0.00
  YS02001895YS02001898    1.00   0.26  0.01  0.00  0.68  0.00  0.05  0.00  0.00  0.00
  YS02001898YS02001901    1.00   0.27  0.00  0.00  0.73  0.00  0.00  0.00  0.01  0.00
  YS02001901YS02001904    1.00   0.27  0.00  0.00  0.73  0.00  0.00  0.00  0.00  0.00
  YS02001904YS02001907    1.00   0.00  0.27  0.00  0.73  0.00  0.00  0.00  0.00  0.00
  YS02001907YS02006553    1.00   0.00  0.01  0.00  0.99  0.00  0.00  0.00  0.00  0.00
  YS02001910YS02001907    1.00   0.00  0.00  0.00  0.99  0.00  0.00  0.01  0.15  0.00
  YS02001915YS02001910    1.00   0.00  0.00  0.00  0.93  0.07  0.00  0.00  0.18  0.00
  YS02001918YS02001915    1.00   0.00  0.00  0.00  1.00  0.00  0.00  0.00  0.62  0.00
  YS02001920YS02001918    1.00   0.00  0.00  0.00  1.00  0.00  0.00  0.00  0.01  0.00
  YS02001923YS02001920    1.00   0.00  0.00  0.00  1.00  0.00  0.00  0.00  0.86  0.00
  YS02001926YS02001923    1.00   0.00  0.03  0.00  0.11  0.00  0.86  0.00  0.00  0.00
  YS02001929YS02001926    1.00   0.00  0.17  0.00  0.83  0.00  0.00  0.00  0.73  0.00
  YS02006553YS02006556    1.00   0.00  0.00  0.00  1.00  0.00  0.00  0.00  0.04  0.00
  YS02006556YS02006558    1.00   0.00  0.00  0.00  1.00  0.00  0.00  0.00  0.00  0.00
  YS02006558YS02006561    1.00   0.31  0.00  0.00  0.10  0.59  0.00  0.00  0.23  0.00
  YS02006561YS02001783    1.00   0.31  0.00  0.00  0.18  0.51  0.00  0.00  0.55  0.00
  YS02163301YS02001633    1.00   0.00  0.23  0.00  0.77  0.00  0.00  0.00  0.00  0.00
  YS02163601YS02164001    1.00   0.00  0.03  0.00  0.97  0.00  0.00  0.00  0.00  0.00
  YS02164001YS02001641    1.00   0.00  0.03  0.00  0.97  0.00  0.00  0.00  0.07  0.00
  YSB1154YSB6556          1.00   0.16  0.00  0.00  0.84  0.00  0.00  0.00  0.02  0.00
  YSB1171HS02004479       1.00   0.01  0.00  0.00  0.98  0.00  0.00  0.00  0.13  0.00
  YSB1174YSB1171          1.00   0.02  0.04  0.00  0.94  0.00  0.00  0.00  0.00  0.00
  YSB6556YSB1171          1.00   0.01  0.15  0.00  0.84  0.00  0.00  0.00  0.00  0.00
  
  
  *************************
  Conduit Surcharge Summary
  *************************
  
  ----------------------------------------------------------------------------
                                                           Hours        Hours 
                         --------- Hours Full --------   Above Full   Capacity
  Conduit                Both Ends  Upstream  Dnstream   Normal Flow   Limited
  ----------------------------------------------------------------------------
  HS02004478WS02006287        0.69      0.69      0.90      0.01         0.01
  HS02004479HS02004480        0.90      0.90      0.92      0.01         0.01
  HS02004480HS02004478        0.80      0.89      0.80      1.93         0.80
  HS02004770HS02004777        0.77      0.77      0.77      0.14         0.09
  HS02004777HS02004785        0.72      0.72      0.77      0.01         0.01
  HS02004785HS02004788        0.71      0.72      0.71      1.69         0.62
  HS02004788HS02004792        0.71      0.71      0.85      0.01         0.01
  HS02004792HS02004799        0.85      0.85      1.02      0.01         0.01
  HS02004799HS02004480        0.89      0.89      1.02      1.13         0.01
  HS02004802HS02004478        0.82      0.82      0.92      0.20         0.01
  HS02004807HS02004802        0.88      0.88      0.91      0.40         0.41
  HS02004817HS02004807        0.88      0.88      1.51      0.01         0.01
  HS02004817HS02004824        0.71      0.71      1.51      0.01         0.01
  HS02004824HS02004830        0.68      0.68      0.71      0.01         0.01
  HS02004830HS02004837        0.62      0.62      0.68      0.01         0.01
  HS02004837HS02004842        0.62      0.62      0.79      0.01         0.01
  HS02004842HS02004848        0.60      0.60      0.79      0.01         0.01
  HS02004848HS02004852        0.60      0.60      0.62      0.01         0.01
  HS02004852HS02004856        0.62      0.62      0.64      0.01         0.01
  HS02004856HS02004862        0.61      0.61      0.65      0.01         0.01
  HS02004862HS02004870        0.65      0.65      0.67      0.30         0.31
  HS02004870HS02004876        0.67      0.67      0.75      0.01         0.01
  HS02004876HS02004881        0.73      0.75      0.73      1.73         0.73
  HS02004881HS02006253        0.73      0.73      2.45      0.01         0.01
  HS02004901HS02004770        0.77      0.77      0.77      0.13         0.01
  WS02003072WS02003073        0.01      0.01      0.01      2.92         0.01
  WS02004401WS02004402        1.87      1.87      1.91      1.67         1.66
  WS02004402WS02004403        1.91      1.91      1.92      1.86         1.85
  WS02004403WS02004404        1.92      1.92      2.12      0.01         0.03
  WS02004404WS02004405        2.07      2.12      2.07      3.50         2.07
  WS02004405WS02004406        2.03      2.07      2.03      2.58         2.03
  WS02004406WS02004407        0.01      0.01      2.03      0.01         0.01
  WS02004407WS02004409        0.01      0.01      1.40      0.01         0.01
  WS02004409WS02004410        1.28      1.40      1.28      1.75         1.28
  WS02004410WS02004411        1.16      1.28      1.16      1.81         1.16
  WS02004411WS02004412        1.05      1.16      1.05      1.85         1.05
  WS02004412WS02004413        1.05      1.05      1.58      0.01         0.01
  WS02004413WS02003067        0.01      0.01      1.58      0.01         0.01
  WS02006109WS02006110        2.56      2.57      2.73      2.58         0.01
  WS02006110WS02006113        1.58      1.58      2.73      0.37         0.01
  WS02006111WS02006112        1.56      1.57      2.85      0.01         0.01
  WS02006112WS02006115        1.76      1.76      2.60      0.01         0.01
  WS02006113WS02006111        1.57      1.58      1.57      1.66         1.57
  WS02006115WS02006116        1.77      1.77      1.78      1.74         1.73
  WS02006116WS02004401        1.87      1.87      1.87      1.83         1.81
  WS02006228WS02006109        2.71      2.73      2.71      2.90         2.71
  WS02006229WS02006228        2.71      2.71      2.71      2.82         2.71
  WS02006230WS02006229        2.76      2.77      2.76      3.47         1.43
  WS02006231WS02006230        2.22      2.22      2.54      3.32         1.31
  WS02006232WS02006231        2.53      2.53      2.62      0.03         0.21
  WS02006234WS02006232        2.56      2.56      2.62      0.03         0.03
  WS02006235WS02006234        2.54      2.55      2.56      3.24         1.28
  WS02006238WS02006235        2.57      2.57      2.58      0.01         0.47
  WS02006239WS02006238        2.57      2.57      2.57      1.86         0.76
  WS02006240WS02006239        2.54      2.54      2.55      1.84         0.75
  WS02006242WS02006240        2.54      2.54      2.56      2.04         1.15
  WS02006243WS02006242        2.52      2.52      2.55      0.01         0.01
  WS02006245WS02006243        2.50      2.50      2.51      0.69         0.69
  WS02006247WS02006245        2.50      2.51      2.50      3.17         1.03
  WS02006248WS02006247        2.49      2.49      2.50      0.01         0.01
  WS02006249WS02006248        2.48      2.48      2.49      1.78         0.01
  WS02006251WS02006249        2.48      2.48      2.49      2.40         2.42
  WS02006252WS02006251        2.44      2.44      2.45      1.55         0.10
  WS02006253WS02006251        2.48      2.48      2.48      1.06         0.01
  WS02006256WS02006235        3.40      3.40      4.77      0.35         0.01
  WS02006280WS02006229        1.06      1.06      1.20      0.01         0.01
  WS02006284WS02006280        0.93      0.93      1.03      0.01         0.01
  WS02006287WS02006284        0.80      0.80      0.94      0.45         0.46
  YS02001580YS02001583        0.84      0.84      0.92      0.01         0.01
  YS02001583YS02001586        0.85      0.85      1.00      0.01         0.01
  YS02001586YS02001590        1.00      1.00      1.08      0.01         0.01
  YS02001590YS02001593        1.08      1.08      1.10      1.06         0.01
  YS02001593YS02001596        1.08      1.08      1.21      0.01         0.01
  YS02001596YS02001600        1.28      1.28      1.39      0.01         0.01
  YS02001600YS02001601        1.46      1.46      1.77      0.01         0.01
  YS02001601YS02001602        1.66      1.66      1.81      1.39         0.01
  YS02001602YS02001605        1.60      1.60      1.66      2.57         0.01
  YS02001605YS02001607        1.55      1.60      1.56      1.68         1.51
  YS02001607YS02001610        1.08      1.08      1.10      0.01         0.01
  YS02001610YS02001613        1.07      1.07      1.10      0.01         0.01
  YS02001613YS02001616        1.03      1.03      1.07      0.01         0.01
  YS02001616YS02001619        1.01      1.01      1.03      0.01         0.08
  YS02001619YS02001622        1.01      1.01      1.02      1.05         0.89
  YS02001622YS02001625        1.02      1.02      1.21      0.01         0.01
  YS02001625YS02001629        0.96      0.96      1.21      0.01         0.01
  YS02001629YS02163301        1.21      1.21      1.23      0.08         0.10
  YS02001633YS02163601        1.26      1.26      1.31      0.15         0.19
  YS02001641YS02001644        1.17      1.20      1.17      1.86         1.12
  YS02001644YS02001647        0.98      0.98      1.17      0.01         0.01
  YS02001647YS02001649        0.98      0.98      1.10      0.01         0.01
  YS02001649YS02001757        1.10      1.10      1.19      0.01         0.03
  YS02001652YS02001649        0.95      0.95      1.10      0.01         0.01
  YS02001655YS02001652        0.80      0.80      0.94      0.01         0.01
  YS02001658YS02001655        0.45      0.45      0.80      0.01         0.01
  YS02001661YS02001658        0.09      0.09      0.45      0.01         0.01
  YS02001664YS02001661        0.01      0.01      0.16      0.01         0.01
  YS02001745YS02001748        0.01      0.01      0.38      0.01         0.01
  YS02001748YS02001751        0.42      0.42      0.67      0.01         0.01
  YS02001751YS02001754        0.67      0.67      0.88      0.01         0.01
  YS02001754YS02001757        0.91      0.91      1.19      0.01         0.01
  YS02001757CaochengTiaoxuchi        1.19      1.19      1.81      0.47         0.47
  YS02001759YS02001757        1.09      1.09      1.19      0.01         0.01
  YS02001762YS02001759        1.07      1.07      1.09      0.01         0.01
  YS02001765YS02001762        1.03      1.03      1.07      0.01         0.01
  YS02001767YS02001765        1.01      1.01      1.03      0.01         0.01
  YS02001770YS02001767        1.00      1.00      1.01      0.66         0.63
  YS02001774YS02001770        0.97      0.97      1.06      0.01         0.01
  YS02001779YS02001774        0.87      0.87      1.06      0.01         0.01
  YS02001783YS02001784        0.69      0.73      0.71      0.94         0.69
  YS02001784YS02001785        0.56      0.71      0.56      1.25         0.56
  YS02001786YS02001788        0.17      0.56      0.17      1.11         0.17
  YS02001788YS02001790        0.17      0.17      0.24      0.01         0.01
  YS02001790YS02001791        0.23      0.24      0.23      0.68         0.16
  YS02001791YS02001793        0.23      0.23      0.36      0.01         0.01
  YS02001793JiankangQianchi        0.31      0.31      4.23      0.01         0.01
  YS02001882YS02001884        0.65      0.65      0.67      0.01         0.01
  YS02001884YS02001887        0.70      0.70      0.71      0.01         0.01
  YS02001887YS02001890        0.73      0.73      0.75      0.17         0.01
  YS02001890YS02001895        0.64      0.64      0.77      0.01         0.01
  YS02001895YS02001898        0.63      0.63      0.64      0.01         0.01
  YS02001898YS02001901        0.65      0.65      0.69      0.01         0.01
  YS02001901YS02001904        0.68      0.68      0.69      0.01         0.01
  YS02001904YS02001907        0.68      0.68      1.09      0.01         0.01
  YS02001907YS02006553        1.27      1.27      1.34      0.01         0.01
  YS02001910YS02001907        0.76      0.76      1.06      0.01         0.01
  YS02001915YS02001910        0.65      0.65      0.76      0.01         0.01
  YS02001918YS02001915        0.55      0.55      0.65      0.01         0.01
  YS02001920YS02001918        0.55      0.55      0.57      0.01         0.01
  YS02001923YS02001920        0.50      0.50      0.57      0.01         0.01
  YS02001926YS02001923        0.15      0.15      0.23      0.01         0.01
  YS02001929YS02001926        0.01      0.01      0.23      0.01         0.01
  YS02006553YS02006556        0.89      0.89      1.09      0.01         0.01
  YS02006556YS02006558        0.99      0.99      1.11      0.01         0.01
  YS02006558YS02006561        0.59      0.87      0.59      1.21         0.59
  YS02006561YS02001783        0.51      0.51      0.73      0.01         0.01
  YS02163301YS02001633        1.23      1.23      1.28      0.01         0.01
  YS02163601YS02164001        1.20      1.20      1.31      0.08         0.01
  YS02164001YS02001641        1.19      1.20      1.20      0.66         0.57
  YSB1154YSB6556              0.98      0.98      1.17      0.01         0.01
  YSB1171HS02004479           0.84      0.84      1.17      0.01         0.01
  YSB1174YSB1171              1.07      1.07      1.41      0.01         0.01
  YSB6556YSB1171              0.98      0.98      1.57      0.01         0.01
  
  
  ***************
  Pumping Summary
  ***************
  
  ---------------------------------------------------------------------------------------------------------
                                                  Min       Avg       Max     Total     Power    % Time Off
                        Percent   Number of      Flow      Flow      Flow    Volume     Usage    Pump Curve
  Pump                 Utilized   Start-Ups       LPS       LPS       LPS  10^6 ltr     Kw-hr    Low   High
  ---------------------------------------------------------------------------------------------------------
  CC-R1                   30.62           1      0.00    683.00    683.00     4.517     86.74    0.0   23.3
  CC-R2                   30.62           1      0.00    683.00    683.00     4.517     86.74    0.0   23.3
  CC-S1                   55.64           1      0.00    200.00    200.00     2.404     15.24    0.0    4.4
  CC-S2                   33.40           1      0.00    200.00    200.00     1.443      8.91    0.0    7.3
  JK-R1                   16.70           6      0.00    749.08   1000.00     2.559     16.01    0.0    0.0
  JK-R2                   16.70           6      0.00    749.08   1000.00     2.559     16.01    0.0    0.0
  JK-S                    16.70           6      0.00    273.69    300.00     0.952     18.82    0.0    0.0
  XR-1                    97.21           1      0.00     95.00     95.00     1.995      8.80    0.0    0.0
  XR-2                    91.94           1      0.00     95.00     95.00     1.887      7.97    0.0    0.0
  XR-3                     0.00           0      0.00      0.00      0.00     0.000      0.00    0.0    0.0
  XR-4                     0.00           0      0.00      0.00      0.00     0.000      0.00    0.0    0.0
  

  Analysis begun on:  Wed Aug 24 17:03:10 2022
  Analysis ended on:  Wed Aug 24 17:03:14 2022
  Total elapsed time: 00:00:04