
  EPA STORM WATER MANAGEMENT MODEL - VERSION 5.1 (Build 5.3.0.dev0)
  --------------------------------------------------------------

  WARNING 04: minimum elevation drop used for Conduit WS02004404WS02004405
  WARNING 03: negative offset ignored for Link YS02001904YS02001907
  
  *********************************************************
  NOTE: The summary statistics displayed in this report are
  based on results found at every computational time step,  
  not just on results from each reporting time step.
  *********************************************************
  
  ****************
  Analysis Options
  ****************
  Flow Units ............... LPS
  Process Models:
    Rainfall/Runoff ........ YES
    RDII ................... NO
    Snowmelt ............... NO
    Groundwater ............ NO
    Flow Routing ........... YES
    Ponding Allowed ........ NO
    Water Quality .......... NO
  Infiltration Method ...... HORTON
  Flow Routing Method ...... DYNWAVE
  Surcharge Method ......... EXTRAN
  Starting Date ............ 01/01/2000 00:00:00
  Ending Date .............. 01/01/2000 06:00:00
  Antecedent Dry Days ...... 8.0
  Report Time Step ......... 00:01:00
  Wet Time Step ............ 00:01:00
  Dry Time Step ............ 00:01:00
  Routing Time Step ........ 30.00 sec
  Variable Time Step ....... YES
  Maximum Trials ........... 8
  Number of Threads ........ 4
  Head Tolerance ........... 0.001500 m
  
  
  **************************        Volume         Depth
  Runoff Quantity Continuity     hectare-m            mm
  **************************     ---------       -------
  Total Precipitation ......         5.377        88.755
  Evaporation Loss .........         0.000         0.000
  Infiltration Loss ........         0.249         4.116
  Surface Runoff ...........         5.062        83.569
  Final Storage ............         0.066         1.088
  Continuity Error (%) .....        -0.019
  
  
  **************************        Volume        Volume
  Flow Routing Continuity        hectare-m      10^6 ltr
  **************************     ---------     ---------
  Dry Weather Inflow .......         0.472         4.722
  Wet Weather Inflow .......         5.061        50.610
  Groundwater Inflow .......         0.000         0.000
  RDII Inflow ..............         0.000         0.000
  External Inflow ..........         0.078         0.784
  External Outflow .........         3.146        31.461
  Flooding Loss ............         2.883        28.834
  Evaporation Loss .........         0.000         0.000
  Exfiltration Loss ........         0.000         0.000
  Initial Stored Volume ....         0.303         3.031
  Final Stored Volume ......         0.172         1.724
  Continuity Error (%) .....        -4.858
  
  
  *************************
  Highest Continuity Errors
  *************************
  Node JK-storage (-49.71%)
  Node YS02001884 (5.37%)
  Node YS02001583 (-4.37%)
  Node HS02004842 (1.41%)
  Node CC-storage (-1.11%)
  
  
  ***************************
  Time-Step Critical Elements
  ***************************
  Link WS02006252WS02006251 (38.15%)
  Link WS02006238WS02006235 (18.39%)
  Link YS02001793JiankangQianchi (12.79%)
  Link WS02006280WS02006229 (12.43%)
  Link YS02001791YS02001793 (2.91%)
  
  
  ********************************
  Highest Flow Instability Indexes
  ********************************
  Link WS02006113WS02006111 (44)
  Link WS02004404WS02004405 (28)
  Link WS02006238WS02006235 (28)
  Link WS02006111WS02006112 (28)
  Link WS02004403WS02004404 (24)
  
  
  *************************
  Routing Time Step Summary
  *************************
  Minimum Time Step           :     0.50 sec
  Average Time Step           :     1.45 sec
  Maximum Time Step           :    30.00 sec
  Percent in Steady State     :    -0.00
  Average Iterations per Step :     3.56
  Percent Not Converging      :    11.39
  
  
  ***************************
  Subcatchment Runoff Summary
  ***************************
  
  ------------------------------------------------------------------------------------------------------------------------------
                            Total      Total      Total      Total     Imperv       Perv      Total       Total     Peak  Runoff
                           Precip      Runon       Evap      Infil     Runoff     Runoff     Runoff      Runoff   Runoff   Coeff
  Subcatchment                 mm         mm         mm         mm         mm         mm         mm    10^6 ltr      LPS
  ------------------------------------------------------------------------------------------------------------------------------
  sub0                      88.76       0.00       0.00       1.03      81.29       5.18      86.47        0.07    42.21   0.974
  sub1                      88.76       0.00       0.00       1.77      77.69       7.99      85.68        0.57   323.80   0.965
  sub10                     88.76       0.00       0.00       1.25      80.32       5.85      86.18        0.95   544.32   0.971
  sub11                     88.76       0.00       0.00       1.23      80.36       5.87      86.23        1.00   586.48   0.972
  sub12                     88.76       0.00       0.00       2.00      76.03       9.54      85.58        0.75   450.28   0.964
  sub14                     88.76       0.00       0.00       1.40      79.47       6.59      86.06        0.82   475.27   0.970
  sub15                     88.76       0.00       0.00       5.48      61.12      21.15      82.27        1.42   780.71   0.927
  sub16                     88.76       0.00       0.00       5.68      58.55      23.62      82.16        0.86   501.80   0.926
  sub17                     88.76       0.00       0.00       5.53      59.42      22.87      82.29        0.71   409.67   0.927
  sub2                      88.76       0.00       0.00       7.84      54.95      25.01      79.96        0.75   360.70   0.901
  sub22                     88.76       0.00       0.00       8.31      49.79      29.86      79.65        5.03  2654.15   0.897
  sub23                     88.76       0.00       0.00       6.78      55.04      26.07      81.10        3.87  2145.86   0.914
  sub3                      88.76       0.00       0.00       8.18      54.87      24.31      79.18        1.78   791.54   0.892
  sub4                      88.76       0.00       0.00       1.97      77.36       7.79      85.16        1.78   858.00   0.959
  sub5                      88.76       0.00       0.00       1.09      81.18       5.13      86.31        0.98   554.74   0.972
  sub60                     88.76       0.00       0.00       1.88      76.87       8.77      85.65        1.13   663.68   0.965
  sub61                     88.76       0.00       0.00       2.73      72.51      12.36      84.88        1.56   923.09   0.956
  sub62                     88.76       0.00       0.00       1.25      80.31       5.85      86.16        2.36  1343.35   0.971
  sub63                     88.76       0.00       0.00       5.03      62.03      20.71      82.73        1.88  1081.77   0.932
  sub64                     88.76       0.00       0.00       2.55      74.17      10.77      84.94        2.04  1131.08   0.957
  sub65                     88.76       0.00       0.00       2.20      75.87       9.34      85.21        2.35  1276.40   0.960
  sub66                     88.76       0.00       0.00       6.24      61.82      19.51      81.32        3.79  1767.83   0.916
  sub67                     88.76       0.00       0.00       1.20      80.40       5.90      86.29        1.61   958.76   0.972
  sub68                     88.76       0.00       0.00       2.26      75.10      10.17      85.27        2.35  1362.78   0.961
  sub69                     88.76       0.00       0.00       2.04      75.24      11.28      86.52        3.20  1700.46   0.975
  sub7                      88.76       0.00       0.00       1.38      79.50       6.61      86.11        0.29   171.38   0.970
  sub70                     88.76       0.00       0.00       6.79      58.27      23.39      81.66        2.36   996.65   0.920
  sub71                     88.76       0.00       0.00       1.29      80.23       5.81      86.05        2.25  1225.99   0.969
  sub72                     88.76       0.00       0.00       1.15      80.98       5.07      86.05        1.18   609.46   0.970
  sub8                      88.76       0.00       0.00       1.40      79.48       6.59      86.07        0.55   320.82   0.970
  sub9                      88.76       0.00       0.00       1.40      79.47       6.59      86.06        0.41   240.76   0.970
  
  
  ******************
  Node Depth Summary
  ******************
  
  ---------------------------------------------------------------------------------
                                 Average  Maximum  Maximum  Time of Max    Reported
                                   Depth    Depth      HGL   Occurrence   Max Depth
  Node                 Type       Meters   Meters   Meters  days hr:min      Meters
  ---------------------------------------------------------------------------------
  HS02004478           JUNCTION     0.29     1.59    10.81     0  02:06        1.58
  HS02004479           JUNCTION     0.36     1.69    10.90     0  01:53        1.67
  HS02004480           JUNCTION     0.33     1.67    10.91     0  01:53        1.63
  HS02004770           JUNCTION     0.32     1.42    11.25     0  01:50        1.42
  HS02004777           JUNCTION     0.35     1.48    11.28     0  01:50        1.46
  HS02004785           JUNCTION     0.24     1.49    11.39     0  01:50        1.36
  HS02004788           JUNCTION     0.21     1.42    11.32     0  01:50        1.36
  HS02004792           JUNCTION     0.28     1.60    11.12     0  01:50        1.60
  HS02004799           JUNCTION     0.40     1.76    10.97     0  01:53        1.76
  HS02004802           JUNCTION     0.38     1.80    10.93     0  02:00        1.79
  HS02004807           JUNCTION     0.36     1.92    11.09     0  01:53        1.92
  HS02004817           JUNCTION     0.66     2.44    11.29     0  01:53        2.41
  HS02004824           JUNCTION     0.25     2.01    11.41     0  01:53        2.01
  HS02004830           JUNCTION     0.24     2.03    11.50     0  01:53        1.99
  HS02004837           JUNCTION     0.21     1.99    11.57     0  01:53        1.91
  HS02004842           JUNCTION     0.49     2.22    11.49     0  01:53        2.22
  HS02004848           JUNCTION     0.19     2.06    11.66     0  01:53        1.91
  HS02004852           JUNCTION     0.20     2.08    11.60     0  01:53        1.97
  HS02004856           JUNCTION     0.25     2.03    11.45     0  02:04        2.03
  HS02004862           JUNCTION     0.21     2.00    11.38     0  02:00        2.00
  HS02004870           JUNCTION     0.21     2.02    11.31     0  02:04        2.01
  HS02004876           JUNCTION     0.26     2.12    11.15     0  02:04        2.12
  HS02004881           JUNCTION     0.19     1.87    10.90     0  02:04        1.86
  HS02004901           JUNCTION     0.33     1.42    11.24     0  01:50        1.42
  WS02001211           JUNCTION     0.64     0.82     5.66     0  02:07        0.82
  WS02001212           JUNCTION     0.38     0.58     5.65     0  02:06        0.58
  WS02001213           JUNCTION     0.61     0.88     5.64     0  02:06        0.88
  WS02003059           JUNCTION     0.68     0.95     5.64     0  02:06        0.95
  WS02003060           JUNCTION     0.41     0.70     5.63     0  02:05        0.70
  WS02003066           JUNCTION     0.26     0.46     6.02     0  02:05        0.46
  WS02003067           JUNCTION     0.60     0.90     6.22     0  02:05        0.90
  WS02003069           JUNCTION     0.47     0.79     5.38     0  02:06        0.79
  WS02003072           JUNCTION     0.52     0.82     5.20     0  02:06        0.82
  WS02003073           JUNCTION     0.32     0.52     4.59     0  02:07        0.52
  WS02004138           JUNCTION     0.13     0.14     7.39     0  00:33        0.14
  WS02004139           JUNCTION     0.58     0.75     5.66     0  02:08        0.75
  WS02004401           JUNCTION     0.89     1.98     7.98     0  02:04        1.98
  WS02004402           JUNCTION     0.90     1.92     7.88     0  02:05        1.91
  WS02004403           JUNCTION     0.90     1.84     7.77     0  02:04        1.83
  WS02004404           JUNCTION     0.97     1.85     7.70     0  02:04        1.84
  WS02004405           JUNCTION     0.95     1.79     7.64     0  02:04        1.78
  WS02004406           JUNCTION     0.94     1.67     7.50     0  02:05        1.66
  WS02004407           JUNCTION     0.33     1.01     7.32     0  02:04        1.00
  WS02004409           JUNCTION     0.64     1.43     7.20     0  02:05        1.42
  WS02004410           JUNCTION     0.64     1.33     7.05     0  02:05        1.33
  WS02004411           JUNCTION     0.63     1.23     6.91     0  02:05        1.23
  WS02004412           JUNCTION     0.62     1.13     6.77     0  02:05        1.12
  WS02004413           JUNCTION     0.75     1.16     6.63     0  02:05        1.16
  WS02006109           JUNCTION     1.15     2.64     9.26     0  01:50        2.64
  WS02006110           JUNCTION     1.07     2.43     9.02     0  02:04        2.43
  WS02006111           JUNCTION     0.52     1.86     8.57     0  02:05        1.86
  WS02006112           JUNCTION     1.13     2.68     8.56     0  00:00        2.52
  WS02006113           JUNCTION     0.62     1.90     8.79     0  02:04        1.90
  WS02006115           JUNCTION     0.82     2.09     8.23     0  02:05        2.09
  WS02006116           JUNCTION     0.88     2.08     8.12     0  02:04        2.08
  WS02006228           JUNCTION     1.22     3.03     9.68     0  02:01        3.02
  WS02006229           JUNCTION     1.24     3.22     9.92     0  02:10        3.22
  WS02006230           JUNCTION     1.15     2.65     9.39     0  01:46        2.65
  WS02006231           JUNCTION     0.85     2.19     9.31     0  01:51        2.19
  WS02006232           JUNCTION     0.95     2.18     9.22     0  01:45        2.18
  WS02006234           JUNCTION     0.83     1.96     9.12     0  01:40        1.96
  WS02006235           JUNCTION     0.84     1.97     9.14     0  02:30        1.92
  WS02006238           JUNCTION     0.86     1.99     9.13     0  02:30        1.93
  WS02006239           JUNCTION     0.80     1.85     9.06     0  01:31        1.78
  WS02006240           JUNCTION     0.74     1.93     9.23     0  01:31        1.62
  WS02006242           JUNCTION     0.78     1.55     8.82     0  01:31        1.55
  WS02006243           JUNCTION     0.66     1.48     8.90     0  01:31        1.36
  WS02006245           JUNCTION     0.63     1.56     9.04     0  01:32        1.26
  WS02006247           JUNCTION     0.64     1.47     8.97     0  01:32        1.23
  WS02006248           JUNCTION     0.58     1.10     8.69     0  01:32        1.10
  WS02006249           JUNCTION     0.60     1.09     8.69     0  01:32        1.09
  WS02006251           JUNCTION     0.75     2.21     9.88     0  01:33        2.16
  WS02006252           JUNCTION     0.53     1.50     9.74     0  00:20        1.50
  WS02006253           JUNCTION     0.85     3.15    10.79     0  02:04        3.14
  WS02006256           JUNCTION     1.12     2.35     9.28     0  00:16        2.35
  WS02006280           JUNCTION     0.38     1.74    10.01     0  01:53        1.73
  WS02006284           JUNCTION     0.62     1.95    10.35     0  01:53        1.94
  WS02006287           JUNCTION     0.36     1.74    10.69     0  01:58        1.73
  WSF200               JUNCTION     0.27     0.53     5.77     0  02:05        0.53
  YS02001580           JUNCTION     0.14     1.05     9.59     0  01:48        0.77
  YS02001583           JUNCTION     0.17     1.14     9.64     0  01:48        0.82
  YS02001586           JUNCTION     0.27     1.13     9.30     0  01:48        1.13
  YS02001590           JUNCTION     0.38     1.40     9.26     0  01:48        1.37
  YS02001593           JUNCTION     0.32     1.33     9.19     0  01:48        1.28
  YS02001596           JUNCTION     0.45     1.68     9.10     0  01:48        1.65
  YS02001600           JUNCTION     0.55     1.87     9.00     0  01:48        1.86
  YS02001601           JUNCTION     0.74     2.06     8.90     0  01:47        2.06
  YS02001602           JUNCTION     0.65     1.87     8.77     0  01:47        1.87
  YS02001605           JUNCTION     0.62     1.77     8.68     0  01:58        1.77
  YS02001607           JUNCTION     0.60     1.65     8.49     0  02:25        1.64
  YS02001610           JUNCTION     0.64     1.68     8.48     0  01:52        1.68
  YS02001613           JUNCTION     0.60     1.67     8.51     0  02:02        1.66
  YS02001616           JUNCTION     0.54     1.61     8.52     0  02:02        1.61
  YS02001619           JUNCTION     0.52     1.61     8.54     0  02:01        1.61
  YS02001622           JUNCTION     0.52     1.58     8.49     0  02:03        1.58
  YS02001625           JUNCTION     0.75     1.78     8.38     0  01:53        1.78
  YS02001629           JUNCTION     0.69     1.85     8.40     0  01:55        1.85
  YS02001633           JUNCTION     0.77     2.01     8.46     0  01:56        2.00
  YS02001641           JUNCTION     0.75     1.95     8.39     0  01:56        1.94
  YS02001644           JUNCTION     0.74     1.92     8.35     0  01:56        1.92
  YS02001647           JUNCTION     0.56     1.75     8.36     0  02:05        1.74
  YS02001649           JUNCTION     0.65     1.97     8.36     0  02:04        1.97
  YS02001652           JUNCTION     0.52     1.83     8.42     0  02:04        1.82
  YS02001655           JUNCTION     0.41     1.64     8.49     0  02:04        1.63
  YS02001658           JUNCTION     0.29     1.41     8.55     0  02:05        1.39
  YS02001661           JUNCTION     0.24     1.25     8.66     0  01:57        1.20
  YS02001664           JUNCTION     0.07     0.65     8.58     0  02:05        0.65
  YS02001745           JUNCTION     0.15     0.85     8.36     0  02:04        0.85
  YS02001748           JUNCTION     0.29     1.42     8.50     0  01:57        1.27
  YS02001751           JUNCTION     0.37     1.49     8.37     0  01:57        1.44
  YS02001754           JUNCTION     0.49     1.70     8.31     0  02:04        1.69
  YS02001757           JUNCTION     0.70     2.02     8.28     0  02:04        2.02
  YS02001759           JUNCTION     0.64     2.03     8.39     0  02:04        2.02
  YS02001762           JUNCTION     0.62     2.00     8.40     0  02:04        2.00
  YS02001765           JUNCTION     0.60     1.96     8.41     0  02:04        1.96
  YS02001767           JUNCTION     0.58     1.94     8.43     0  02:04        1.93
  YS02001770           JUNCTION     0.59     1.95     8.44     0  02:04        1.95
  YS02001774           JUNCTION     0.65     2.00     8.42     0  02:04        1.99
  YS02001779           JUNCTION     0.46     1.68     8.37     0  01:54        1.68
  YS02001783           JUNCTION     0.29     1.80     7.94     0  01:56        1.50
  YS02001784           JUNCTION     0.30     1.79     7.86     0  01:56        1.45
  YS02001786           JUNCTION     0.25     1.64     7.67     0  01:56        1.29
  YS02001788           JUNCTION     0.18     1.56     7.54     0  01:56        1.15
  YS02001790           JUNCTION     0.22     1.64     7.28     0  01:56        1.29
  YS02001791           JUNCTION     0.14     1.68     7.15     0  01:55        1.28
  YS02001793           JUNCTION     0.10     1.91     6.74     0  01:56        1.80
  YS02001882           JUNCTION     0.35     1.66     8.37     0  02:04        1.65
  YS02001884           JUNCTION     0.44     1.76     8.38     0  02:05        1.76
  YS02001887           JUNCTION     0.51     1.84     8.38     0  02:04        1.83
  YS02001890           JUNCTION     0.54     1.81     8.32     0  01:53        1.81
  YS02001895           JUNCTION     0.32     1.57     8.31     0  01:53        1.56
  YS02001898           JUNCTION     0.33     1.57     8.30     0  01:53        1.56
  YS02001901           JUNCTION     0.44     1.68     8.29     0  01:53        1.67
  YS02001904           JUNCTION     0.42     1.64     8.27     0  01:53        1.63
  YS02001907           JUNCTION     0.72     1.96     8.25     0  01:53        1.96
  YS02001910           JUNCTION     0.53     1.98     8.49     0  01:54        1.98
  YS02001915           JUNCTION     0.36     1.94     8.66     0  02:04        1.93
  YS02001918           JUNCTION     0.21     1.81     8.88     0  01:54        1.64
  YS02001920           JUNCTION     0.29     2.04     9.05     0  01:54        1.70
  YS02001923           JUNCTION     0.16     1.91     9.17     0  01:54        1.48
  YS02001926           JUNCTION     0.19     1.80     9.25     0  01:54        1.32
  YS02001929           JUNCTION     0.11     1.78     9.47     0  01:54        1.09
  YS02006553           JUNCTION     0.72     2.05     8.33     0  01:56        1.97
  YS02006556           JUNCTION     0.69     2.13     8.44     0  01:56        1.96
  YS02006558           JUNCTION     0.74     2.21     8.48     0  01:56        2.02
  YS02006561           JUNCTION     0.18     1.36     8.02     0  01:56        1.12
  YS02163301           JUNCTION     0.71     1.91     8.43     0  01:55        1.91
  YS02163601           JUNCTION     0.80     2.04     8.43     0  01:56        2.02
  YS02164001           JUNCTION     0.73     1.96     8.41     0  01:56        1.93
  YSB1154              JUNCTION     0.49     2.00    11.06     0  02:04        1.99
  YSB1171              JUNCTION     0.63     1.95    10.85     0  01:53        1.95
  YSB1174              JUNCTION     0.45     1.82    10.93     0  02:04        1.82
  YSB6556              JUNCTION     0.40     1.78    10.95     0  02:05        1.78
  CC-1                 OUTFALL      0.00     0.00     0.00     0  00:00        0.00
  CC-2                 OUTFALL      0.00     0.00     0.00     0  00:00        0.00
  JK-1                 OUTFALL      0.00     0.00     0.00     0  00:00        0.00
  JK-2                 OUTFALL      0.00     0.00     0.00     0  00:00        0.00
  WSC                  OUTFALL      0.32     0.52     1.19     0  02:07        0.52
  CC-storage           STORAGE      0.99     2.30     7.80     0  02:44        2.30
  JK-storage           STORAGE      0.22     5.80     6.60     0  01:56        5.80
  XR-storage           STORAGE      7.73     8.66     6.66     0  06:00        8.66
  
  
  *******************
  Node Inflow Summary
  *******************
  
  -------------------------------------------------------------------------------------------------
                                  Maximum  Maximum                  Lateral       Total        Flow
                                  Lateral    Total  Time of Max      Inflow      Inflow     Balance
                                   Inflow   Inflow   Occurrence      Volume      Volume       Error
  Node                 Type           LPS      LPS  days hr:min    10^6 ltr    10^6 ltr     Percent
  -------------------------------------------------------------------------------------------------
  HS02004478           JUNCTION      0.00  2305.28     0  01:58           0        10.7      -0.003
  HS02004479           JUNCTION      0.00   394.84     0  01:53           0        1.07       0.078
  HS02004480           JUNCTION      0.00  2076.82     0  01:52           0         7.9       0.028
  HS02004770           JUNCTION   2145.86  2145.86     0  02:05        3.87        4.13       0.084
  HS02004777           JUNCTION      0.03   680.54     0  01:49    0.000648         2.2       0.240
  HS02004785           JUNCTION      0.15   697.81     0  01:49     0.00324         2.2       0.009
  HS02004788           JUNCTION    782.38   887.14     0  02:05        1.45        3.65       0.008
  HS02004792           JUNCTION   2654.43  3540.75     0  02:05        5.04        8.69       0.013
  HS02004799           JUNCTION    475.27  1725.32     0  01:51       0.819        7.26       0.046
  HS02004802           JUNCTION      0.00  1233.86     0  02:03           0        3.07       0.133
  HS02004807           JUNCTION    586.48  1783.22     0  02:05           1         3.4       0.132
  HS02004817           JUNCTION      0.60  1197.03     0  02:04       0.013        2.46       0.683
  HS02004824           JUNCTION    858.05  1448.60     0  02:05        1.78        2.76       0.020
  HS02004830           JUNCTION      0.15   590.49     0  02:04     0.00324        1.21       0.091
  HS02004837           JUNCTION    550.67   778.34     0  01:53        1.09        1.59       0.044
  HS02004842           JUNCTION      0.00   785.15     0  01:51           0       0.935       1.433
  HS02004848           JUNCTION    791.54  1039.43     0  01:53        1.78        2.44      -0.006
  HS02004852           JUNCTION      0.00  1012.31     0  01:53           0        2.17       0.006
  HS02004856           JUNCTION    240.76  1074.92     0  01:52       0.414        2.59       0.058
  HS02004862           JUNCTION    360.90  1168.42     0  01:52       0.749        3.34       0.013
  HS02004870           JUNCTION    320.82  1257.92     0  02:07        0.55        3.83       0.011
  HS02004876           JUNCTION    323.80  1515.79     0  02:07        0.57         4.4       0.027
  HS02004881           JUNCTION    171.38  1672.25     0  02:05        0.29        4.69       0.011
  HS02004901           JUNCTION    501.80   767.47     0  02:05        0.86        1.37       0.146
  WS02001211           JUNCTION      7.35   206.73     0  03:16       0.159        4.02       0.830
  WS02001212           JUNCTION      0.00   215.12     0  03:17           0        3.98       0.390
  WS02001213           JUNCTION      0.00   222.37     0  03:17           0        3.97       0.462
  WS02003059           JUNCTION      0.00   230.47     0  03:17           0        3.96       0.825
  WS02003060           JUNCTION     16.53  1550.40     0  02:05       0.357        14.9       0.108
  WS02003066           JUNCTION      0.00  1343.74     0  02:05           0        10.6       0.020
  WS02003067           JUNCTION      0.00  1343.83     0  02:05           0        10.6       0.048
  WS02003069           JUNCTION      0.32  1549.93     0  02:06     0.00691        14.8       0.114
  WS02003072           JUNCTION      0.00  1549.25     0  02:06           0        14.8       0.153
  WS02003073           JUNCTION      1.82  1550.84     0  02:07      0.0393        14.8       0.161
  WS02004138           JUNCTION      0.00   190.00     0  00:28           0        3.88       0.077
  WS02004139           JUNCTION      0.32   190.32     0  00:33     0.00693        3.89       0.688
  WS02004401           JUNCTION      0.00  1343.13     0  02:05           0        10.7       0.122
  WS02004402           JUNCTION      0.00  1343.40     0  02:05           0        10.7       0.117
  WS02004403           JUNCTION      0.00  1342.95     0  02:05           0        10.7       0.113
  WS02004404           JUNCTION      0.16  1343.17     0  02:05      0.0035        10.7       0.097
  WS02004405           JUNCTION      0.04  1343.72     0  02:04    0.000823        10.7       0.126
  WS02004406           JUNCTION      0.00  1343.08     0  02:05           0        10.7       0.222
  WS02004407           JUNCTION      0.00  1343.68     0  02:05           0        10.6       0.021
  WS02004409           JUNCTION      0.00  1343.27     0  02:05           0        10.6       0.049
  WS02004410           JUNCTION      0.00  1343.57     0  02:05           0        10.6       0.065
  WS02004411           JUNCTION      0.00  1343.81     0  02:05           0        10.6       0.075
  WS02004412           JUNCTION      0.00  1343.71     0  02:05           0        10.6       0.094
  WS02004413           JUNCTION      0.00  1343.52     0  02:05           0        10.6       0.155
  WS02006109           JUNCTION      1.23  1308.01     0  00:00      0.0266        10.4       0.087
  WS02006110           JUNCTION      0.00  1125.17     0  02:28           0        9.97      -0.340
  WS02006111           JUNCTION      0.00  1176.04     0  00:00           0          10      -0.379
  WS02006112           JUNCTION    409.67  2307.30     0  00:00       0.706        10.7       0.011
  WS02006113           JUNCTION      0.00  1125.23     0  02:28           0        9.96      -0.441
  WS02006115           JUNCTION      0.00  2152.75     0  00:00           0        10.7       0.059
  WS02006116           JUNCTION      0.00  1342.80     0  02:04           0        10.7       0.034
  WS02006228           JUNCTION      0.00  1289.00     0  01:58           0        10.4       0.052
  WS02006229           JUNCTION      0.00  2306.32     0  01:58           0        13.7       0.080
  WS02006230           JUNCTION     10.28  1026.45     0  01:58       0.222        6.32       0.067
  WS02006231           JUNCTION      0.00   453.36     0  01:53           0        4.73      -0.002
  WS02006232           JUNCTION      0.00   453.48     0  01:53           0        4.71       0.129
  WS02006234           JUNCTION      0.00   453.13     0  01:53           0        4.69      -0.011
  WS02006235           JUNCTION      0.00   436.75     0  03:38           0        4.62       0.071
  WS02006238           JUNCTION      0.00   419.53     0  03:46           0        4.44      -0.237
  WS02006239           JUNCTION      0.00   419.49     0  03:46           0        4.43      -0.238
  WS02006240           JUNCTION      0.00   419.43     0  03:46           0        4.42       0.021
  WS02006242           JUNCTION      0.00   419.40     0  03:41           0        4.41       0.040
  WS02006243           JUNCTION      0.00   419.68     0  03:41           0        3.88      -0.365
  WS02006245           JUNCTION      0.00   419.96     0  03:41           0        3.89       0.395
  WS02006247           JUNCTION      0.00   420.19     0  03:41           0        3.89       0.092
  WS02006248           JUNCTION      0.00   465.01     0  01:32           0        4.23      -0.067
  WS02006249           JUNCTION      0.00  1380.63     0  02:05           0        8.09       0.132
  WS02006251           JUNCTION      0.08  1714.28     0  02:05     0.00166        8.42       0.002
  WS02006252           JUNCTION      0.00   734.08     0  02:05           0        4.46      -0.090
  WS02006253           JUNCTION     42.21  1714.26     0  02:05        0.07        4.83       0.010
  WS02006256           JUNCTION      0.00   300.00     0  01:34           0       0.942       0.147
  WS02006280           JUNCTION      0.00  2304.57     0  01:58           0        10.7       0.008
  WS02006284           JUNCTION      0.10  2305.33     0  01:58     0.00207        10.7      -0.003
  WS02006287           JUNCTION      0.00  2306.15     0  01:58           0        10.7       0.006
  WSF200               JUNCTION      0.00  1343.92     0  02:05           0        10.6       0.012
  YS02001580           JUNCTION      0.00    78.65     0  01:48           0     0.00446       2.061
  YS02001583           JUNCTION      0.00   135.61     0  01:48           0      0.0158      -4.187
  YS02001586           JUNCTION    996.65   996.65     0  02:05        2.36        2.37       0.058
  YS02001590           JUNCTION      0.00   318.02     0  02:01           0        1.64       0.022
  YS02001593           JUNCTION      0.00   318.06     0  01:55           0        1.64       0.005
  YS02001596           JUNCTION      0.00   318.14     0  02:01           0        1.64      -0.017
  YS02001600           JUNCTION      0.00   317.98     0  02:01           0        1.64      -0.017
  YS02001601           JUNCTION   1700.46  2017.93     0  02:05         3.2        4.84       0.035
  YS02001602           JUNCTION      0.00   501.78     0  01:47           0        2.66       0.031
  YS02001605           JUNCTION      0.00   501.83     0  01:47           0        2.45       0.042
  YS02001607           JUNCTION      0.00   501.38     0  01:47           0        2.45       0.099
  YS02001610           JUNCTION      0.00   949.70     0  02:06           0        2.96       0.104
  YS02001613           JUNCTION      0.00   613.91     0  02:06           0        2.27       0.100
  YS02001616           JUNCTION      0.00   613.81     0  02:06           0        2.27       0.023
  YS02001619           JUNCTION   1767.83  1767.83     0  02:05        3.79        5.54       0.002
  YS02001622           JUNCTION      0.00  1053.44     0  02:05           0        5.01       0.007
  YS02001625           JUNCTION      0.00  1502.53     0  02:06           0        5.39       0.271
  YS02001629           JUNCTION      0.00   931.97     0  01:52           0        3.79      -0.040
  YS02001633           JUNCTION   1276.60  1379.46     0  01:53        2.35        5.68       0.071
  YS02001641           JUNCTION      0.00  1375.98     0  01:53           0        5.23       0.058
  YS02001644           JUNCTION   1131.12  1783.14     0  01:53        2.04        7.26       0.062
  YS02001647           JUNCTION      0.00  1782.63     0  01:53           0        6.45       0.001
  YS02001649           JUNCTION      0.00  2061.15     0  01:52           0        8.34       0.008
  YS02001652           JUNCTION      0.00  1083.74     0  02:05           0        1.88      -0.069
  YS02001655           JUNCTION      0.15  1083.89     0  02:05     0.00332        1.88       0.059
  YS02001658           JUNCTION      0.00  1083.28     0  02:05           0        1.88      -0.083
  YS02001661           JUNCTION      0.00  1081.45     0  02:05           0        1.88       0.008
  YS02001664           JUNCTION   1081.77  1081.77     0  02:05        1.88        1.88      -0.017
  YS02001745           JUNCTION    663.68   663.68     0  02:05        1.13        1.14       0.131
  YS02001748           JUNCTION      0.04   670.52     0  02:05    0.000972        1.14      -0.321
  YS02001751           JUNCTION      0.01   672.24     0  02:05    0.000238        1.13      -0.038
  YS02001754           JUNCTION      0.26   672.20     0  02:05     0.00562        1.14      -0.125
  YS02001757           JUNCTION      0.00  3567.06     0  02:02           0          13       0.019
  YS02001759           JUNCTION    923.13  1453.15     0  02:02        1.56        3.56      -0.002
  YS02001762           JUNCTION      0.00   796.94     0  01:57           0           2       0.003
  YS02001765           JUNCTION      0.00   798.26     0  01:57           0           2       0.013
  YS02001767           JUNCTION      0.54   798.78     0  01:57      0.0116           2      -0.001
  YS02001770           JUNCTION   1343.50  1343.50     0  02:05        2.36        2.41      -0.017
  YS02001774           JUNCTION      0.00   825.80     0  02:05           0       0.446       0.294
  YS02001779           JUNCTION      0.01   826.46     0  02:05    0.000108         0.4      -0.085
  YS02001783           JUNCTION      0.00  1163.42     0  02:04           0        4.95       0.006
  YS02001784           JUNCTION      1.06  1164.79     0  02:04      0.0229        4.97       0.014
  YS02001786           JUNCTION      0.06  1164.57     0  02:04     0.00122        4.97       0.016
  YS02001788           JUNCTION      0.07  1164.62     0  02:04     0.00153        4.97       0.004
  YS02001790           JUNCTION      0.15  1218.95     0  02:01     0.00335        4.97       0.004
  YS02001791           JUNCTION      0.00  1363.86     0  02:01           0        4.97      -0.015
  YS02001793           JUNCTION      0.00  1417.51     0  02:01           0        4.97      -0.004
  YS02001882           JUNCTION      0.00    39.09     0  01:51           0      0.0131       6.026
  YS02001884           JUNCTION      0.00    42.80     0  01:50           0      0.0488       5.674
  YS02001887           JUNCTION    959.21   960.29     0  02:05        1.61        1.65       0.292
  YS02001890           JUNCTION      0.00   959.54     0  02:05           0        1.61       0.343
  YS02001895           JUNCTION      0.00   517.33     0  02:07           0        1.39       0.146
  YS02001898           JUNCTION      0.00   517.43     0  02:08           0        1.39       0.017
  YS02001901           JUNCTION      0.00   517.50     0  02:08           0        1.39       0.257
  YS02001904           JUNCTION      0.00   517.32     0  02:01           0        1.39       0.225
  YS02001907           JUNCTION      0.00  2556.74     0  02:05           0        4.92       0.390
  YS02001910           JUNCTION      0.00  1838.47     0  02:05           0        3.49       0.212
  YS02001915           JUNCTION   1226.01  1838.05     0  02:05        2.25        3.53       0.052
  YS02001918           JUNCTION      0.00   617.06     0  02:05           0         1.3       0.013
  YS02001920           JUNCTION      2.87   616.04     0  02:05       0.062        1.28       0.081
  YS02001923           JUNCTION      0.04   610.46     0  02:05    0.000814        1.21       0.018
  YS02001926           JUNCTION      0.05   610.41     0  02:05     0.00113        1.19      -0.001
  YS02001929           JUNCTION    609.46   609.46     0  02:05        1.18        1.18      -0.043
  YS02006553           JUNCTION      0.00   794.34     0  02:24           0        2.72       0.445
  YS02006556           JUNCTION      0.00   793.97     0  02:24           0        2.73       0.312
  YS02006558           JUNCTION   1363.66  1363.66     0  02:05        2.36        5.02       0.072
  YS02006561           JUNCTION      0.00  1163.43     0  02:04           0        4.95      -0.000
  YS02163301           JUNCTION      0.00   933.04     0  01:52           0        3.79       0.046
  YS02163601           JUNCTION      0.11  1378.86     0  01:53     0.00238        5.22       0.104
  YS02164001           JUNCTION      0.00  1377.93     0  01:53           0        5.22       0.052
  YSB1154              JUNCTION    554.74   554.74     0  02:05       0.978       0.978       0.155
  YSB1171              JUNCTION      0.00  1243.55     0  02:05           0        1.95       0.356
  YSB1174              JUNCTION    450.28   450.28     0  02:05       0.748       0.748       0.178
  YSB6556              JUNCTION      0.00   554.96     0  02:05           0       0.979       0.136
  CC-1                 OUTFALL       0.00   683.00     0  00:10           0        7.04       0.000
  CC-2                 OUTFALL       0.00   683.00     0  00:20           0        3.13       0.000
  JK-1                 OUTFALL       0.00  1000.00     0  00:00           0        4.17       0.000
  JK-2                 OUTFALL       0.00  1000.00     0  02:00           0        2.31       0.000
  WSC                  OUTFALL       0.00  1550.39     0  02:07           0        14.8       0.000
  CC-storage           STORAGE       0.00  3564.94     0  02:02           0        15.3      -1.097
  JK-storage           STORAGE       0.00  1697.58     0  02:01           0        5.12     -33.206
  XR-storage           STORAGE     200.00   200.00     0  00:00        4.32        4.92       0.001
  
  
  **********************
  Node Surcharge Summary
  **********************
  
  Surcharging occurs when water rises above the top of the highest conduit.
  ---------------------------------------------------------------------
                                               Max. Height   Min. Depth
                                   Hours       Above Crown    Below Rim
  Node                 Type      Surcharged         Meters       Meters
  ---------------------------------------------------------------------
  HS02004478           JUNCTION        0.71          0.665        0.275
  HS02004479           JUNCTION        0.87          0.894        0.156
  HS02004480           JUNCTION        0.91          0.958        0.142
  HS02004770           JUNCTION        0.79          0.720        0.000
  HS02004777           JUNCTION        0.80          0.780        0.000
  HS02004785           JUNCTION        0.74          0.790        0.000
  HS02004788           JUNCTION        0.73          0.720        0.000
  HS02004792           JUNCTION        0.87          0.900        0.000
  HS02004799           JUNCTION        1.03          1.060        0.000
  HS02004802           JUNCTION        0.92          1.091        0.119
  HS02004807           JUNCTION        0.90          1.220        0.000
  HS02004817           JUNCTION        1.57          1.740        0.000
  HS02004824           JUNCTION        0.73          1.310        0.000
  HS02004830           JUNCTION        0.70          1.330        0.000
  HS02004837           JUNCTION        0.65          1.288        0.052
  HS02004842           JUNCTION        0.82          1.520        0.000
  HS02004848           JUNCTION        0.61          1.359        0.011
  HS02004852           JUNCTION        0.64          1.384        0.036
  HS02004856           JUNCTION        0.63          1.258        0.042
  HS02004862           JUNCTION        0.67          1.300        0.000
  HS02004870           JUNCTION        0.69          1.322        0.078
  HS02004876           JUNCTION        0.77          1.424        0.136
  HS02004881           JUNCTION        0.75          1.169        0.281
  HS02004901           JUNCTION        0.80          0.720        0.000
  WS02004401           JUNCTION        1.69          0.980        0.680
  WS02004402           JUNCTION        1.70          0.922        0.818
  WS02004403           JUNCTION        1.70          0.835        1.195
  WS02004404           JUNCTION        1.77          0.847        1.933
  WS02004405           JUNCTION        1.76          0.791        2.009
  WS02004406           JUNCTION        1.74          0.671        1.779
  WS02004407           JUNCTION        0.02          0.005        2.335
  WS02004409           JUNCTION        1.40          0.433        1.927
  WS02004410           JUNCTION        1.32          0.335        2.205
  WS02004411           JUNCTION        1.20          0.234        2.296
  WS02004412           JUNCTION        1.07          0.126        2.184
  WS02004413           JUNCTION        1.60          0.157        2.043
  WS02006109           JUNCTION        2.64          1.820        0.000
  WS02006110           JUNCTION        2.05          1.522        0.328
  WS02006111           JUNCTION        1.57          1.052        0.818
  WS02006112           JUNCTION        2.16          1.680        0.000
  WS02006113           JUNCTION        1.59          1.100        0.830
  WS02006115           JUNCTION        1.65          1.084        1.166
  WS02006116           JUNCTION        1.66          1.019        1.271
  WS02006228           JUNCTION        2.60          2.200        0.000
  WS02006229           JUNCTION        1.27          1.045        0.025
  WS02006230           JUNCTION        1.81          1.570        0.000
  WS02006231           JUNCTION        1.99          1.479        0.051
  WS02006232           JUNCTION        2.47          1.480        0.000
  WS02006234           JUNCTION        2.03          1.240        0.000
  WS02006235           JUNCTION        2.18          1.264        0.026
  WS02006238           JUNCTION        2.26          1.268        0.162
  WS02006239           JUNCTION        2.14          1.107        0.183
  WS02006240           JUNCTION        2.13          1.223        0.167
  WS02006242           JUNCTION        2.41          0.820        0.000
  WS02006243           JUNCTION        2.12          0.770        0.000
  WS02006245           JUNCTION        2.11          0.850        0.000
  WS02006247           JUNCTION        2.15          0.760        0.000
  WS02006248           JUNCTION        2.07          0.380        0.000
  WS02006249           JUNCTION        2.11          0.390        0.000
  WS02006251           JUNCTION        1.86          1.180        0.000
  WS02006252           JUNCTION        2.80          1.100        0.000
  WS02006253           JUNCTION        1.86          2.106        0.374
  WS02006256           JUNCTION        5.73          2.050        0.000
  WS02006280           JUNCTION        1.06          0.694        0.086
  WS02006284           JUNCTION        0.95          0.667        0.133
  WS02006287           JUNCTION        0.83          0.740        0.150
  YS02001580           JUNCTION        0.87          0.450        0.000
  YS02001583           JUNCTION        0.88          0.500        0.000
  YS02001586           JUNCTION        1.19          0.510        0.000
  YS02001590           JUNCTION        1.28          0.750        0.000
  YS02001593           JUNCTION        1.29          0.711        0.129
  YS02001596           JUNCTION        1.41          0.950        0.120
  YS02001600           JUNCTION        1.78          1.190        0.000
  YS02001601           JUNCTION        2.16          1.440        0.000
  YS02001602           JUNCTION        2.06          1.270        0.000
  YS02001605           JUNCTION        2.02          1.175        0.005
  YS02001607           JUNCTION        1.40          0.646        0.034
  YS02001610           JUNCTION        1.61          0.680        0.000
  YS02001613           JUNCTION        1.45          0.670        0.030
  YS02001616           JUNCTION        1.35          0.610        0.000
  YS02001619           JUNCTION        1.33          0.610        0.000
  YS02001622           JUNCTION        1.35          0.582        0.038
  YS02001625           JUNCTION        1.75          0.780        0.000
  YS02001629           JUNCTION        1.30          0.470        0.000
  YS02001633           JUNCTION        1.86          0.990        0.070
  YS02001641           JUNCTION        1.86          0.949        0.151
  YS02001644           JUNCTION        1.85          0.920        0.000
  YS02001647           JUNCTION        1.60          0.749        0.151
  YS02001649           JUNCTION        1.80          0.974        0.076
  YS02001652           JUNCTION        1.56          0.797        0.333
  YS02001655           JUNCTION        1.19          0.639        0.561
  YS02001658           JUNCTION        0.35          0.406        0.894
  YS02001661           JUNCTION        0.09          0.182        1.208
  YS02001748           JUNCTION        0.27          0.344        0.846
  YS02001751           JUNCTION        1.13          0.494        0.706
  YS02001754           JUNCTION        1.52          0.655        0.495
  YS02001757           JUNCTION        1.88          1.023        0.187
  YS02001759           JUNCTION        1.81          1.025        0.185
  YS02001762           JUNCTION        1.76          1.002        0.148
  YS02001765           JUNCTION        1.71          0.964        0.136
  YS02001767           JUNCTION        1.66          0.943        0.087
  YS02001770           JUNCTION        1.63          0.920        0.000
  YS02001774           JUNCTION        1.74          1.000        0.050
  YS02001779           JUNCTION        1.50          0.680        0.000
  YS02001783           JUNCTION        0.74          1.000        0.600
  YS02001784           JUNCTION        0.71          0.988        0.502
  YS02001786           JUNCTION        0.58          0.839        0.591
  YS02001788           JUNCTION        0.08          0.762        0.718
  YS02001790           JUNCTION        0.09          0.837        0.320
  YS02001791           JUNCTION        0.08          0.875        1.045
  YS02001793           JUNCTION        0.09          0.908        1.692
  YS02001882           JUNCTION        0.67          0.657        0.173
  YS02001884           JUNCTION        0.68          0.702        0.168
  YS02001887           JUNCTION        0.73          0.788        0.162
  YS02001890           JUNCTION        0.75          0.760        0.000
  YS02001895           JUNCTION        0.66          0.568        0.182
  YS02001898           JUNCTION        0.65          0.540        0.200
  YS02001901           JUNCTION        0.71          0.679        0.191
  YS02001904           JUNCTION        0.70          0.639        0.211
  YS02001907           JUNCTION        1.02          0.950        0.000
  YS02001910           JUNCTION        0.78          0.983        0.117
  YS02001915           JUNCTION        0.67          0.943        0.057
  YS02001918           JUNCTION        0.57          0.810        0.000
  YS02001920           JUNCTION        0.58          1.041        0.099
  YS02001923           JUNCTION        0.22          0.700        0.120
  YS02001926           JUNCTION        0.25          0.802        0.098
  YS02001929           JUNCTION        0.05          0.780        0.000
  YS02006553           JUNCTION        1.05          1.049        0.141
  YS02006556           JUNCTION        0.90          1.087        0.263
  YS02006558           JUNCTION        0.89          1.110        0.290
  YS02006561           JUNCTION        0.53          0.564        0.586
  YS02163301           JUNCTION        1.81          0.915        0.115
  YS02163601           JUNCTION        1.96          1.036        0.044
  YS02164001           JUNCTION        1.84          0.956        0.144
  YSB1154              JUNCTION        1.22          1.302        0.098
  YSB1171              JUNCTION        1.22          1.100        0.000
  YSB1174              JUNCTION        1.08          1.122        0.128
  YSB6556              JUNCTION        0.99          1.081        0.019
  
  
  *********************
  Node Flooding Summary
  *********************
  
  Flooding refers to all water that overflows a node, whether it ponds or not.
  --------------------------------------------------------------------------
                                                             Total   Maximum
                                 Maximum   Time of Max       Flood    Ponded
                        Hours       Rate    Occurrence      Volume     Depth
  Node                 Flooded       LPS   days hr:min    10^6 ltr    Meters
  --------------------------------------------------------------------------
  HS02004770              0.55   1774.72      0  02:05       1.416     0.000
  HS02004777              0.01     42.28      0  01:50       0.000     0.000
  HS02004785              0.01    108.11      0  01:50       0.000     0.000
  HS02004788              0.01    106.62      0  01:50       0.000     0.000
  HS02004792              0.56   2397.34      0  02:05       2.243     0.000
  HS02004799              0.31    312.03      0  02:05       0.203     0.000
  HS02004807              0.23    551.05      0  02:05       0.292     0.000
  HS02004817              0.01     23.24      0  01:53       0.000     0.000
  HS02004824              0.15    252.50      0  02:05       0.072     0.000
  HS02004830              0.01     21.04      0  01:53       0.000     0.000
  HS02004842              0.13    251.58      0  02:05       0.058     0.000
  HS02004862              0.11    246.55      0  02:05       0.051     0.000
  HS02004901              0.65    767.17      0  02:05       1.106     0.000
  WS02006109              0.62    354.38      0  02:05       0.429     0.000
  WS02006112              0.01   1153.65      0  00:00       0.035     0.000
  WS02006230              0.95    573.81      0  01:58       1.392     0.000
  WS02006232              0.21      0.63      0  02:01       0.000     0.000
  WS02006234              1.04    128.36      0  02:01       0.300     0.000
  WS02006242              1.15    137.25      0  02:21       0.507     0.000
  WS02006243              0.01    221.84      0  01:31       0.001     0.000
  WS02006245              0.01    251.86      0  01:32       0.000     0.000
  WS02006247              0.01    326.82      0  01:32       0.001     0.000
  WS02006248              1.55    421.13      0  01:32       1.668     0.000
  WS02006249              1.78   1319.73      0  02:05       5.189     0.000
  WS02006251              0.01    314.48      0  01:33       0.000     0.000
  WS02006252              0.68    733.91      0  02:05       0.875     0.000
  WS02006256              0.82    296.17      0  02:40       0.537     0.000
  YS02001580              0.01     44.47      0  01:48       0.000     0.000
  YS02001583              0.01     56.18      0  01:48       0.000     0.000
  YS02001586              0.71    678.83      0  02:05       0.717     0.000
  YS02001590              0.01      6.55      0  01:48       0.000     0.000
  YS02001600              0.01      1.70      0  01:48       0.000     0.000
  YS02001601              1.04   1619.55      0  02:05       2.179     0.000
  YS02001602              1.04     62.03      0  01:59       0.215     0.000
  YS02001610              0.80    949.60      0  02:06       1.207     0.000
  YS02001616              0.02      1.61      0  02:04       0.000     0.000
  YS02001619              0.06    107.93      0  02:05       0.009     0.000
  YS02001625              0.98   1502.41      0  02:06       2.041     0.000
  YS02001629              0.21    194.05      0  02:05       0.084     0.000
  YS02001644              0.31   1536.46      0  02:05       0.794     0.000
  YS02001770              0.01      3.94      0  02:05       0.000     0.000
  YS02001779              0.26    825.79      0  02:05       0.382     0.000
  YS02001890              0.27    442.90      0  02:05       0.213     0.000
  YS02001907              0.50   2556.19      0  02:05       2.242     0.000
  YS02001918              0.01     68.89      0  01:54       0.000     0.000
  YS02001929              0.01    182.69      0  01:54       0.000     0.000
  YSB1171                 0.44   1242.85      0  02:05       1.098     0.000
  CC-storage              0.31   1152.68      0  02:44       1.051     0.000
  JK-storage              0.07   1056.55      0  01:56       0.248     0.000
  
  
  **********************
  Storage Volume Summary
  **********************
  
  --------------------------------------------------------------------------------------------------
                         Average     Avg  Evap Exfil       Maximum     Max    Time of Max    Maximum
                          Volume    Pcnt  Pcnt  Pcnt        Volume    Pcnt     Occurrence    Outflow
  Storage Unit           1000 m3    Full  Loss  Loss       1000 m3    Full    days hr:min        LPS
  --------------------------------------------------------------------------------------------------
  CC-storage               2.765      43     0     0         6.410     100       0  02:44    1766.00
  JK-storage               0.011       4     0     0         0.291     100       0  01:56    2300.00
  XR-storage               0.928      64     0     0         1.039      72       0  06:00     190.00
  
  
  ***********************
  Outfall Loading Summary
  ***********************
  
  -----------------------------------------------------------
                         Flow       Avg       Max       Total
                         Freq      Flow      Flow      Volume
  Outfall Node           Pcnt       LPS       LPS    10^6 ltr
  -----------------------------------------------------------
  CC-1                  67.44    573.99    683.00       7.038
  CC-2                  28.34    598.21    683.00       3.131
  JK-1                  78.21    263.91   1000.00       4.166
  JK-2                  35.40    359.67   1000.00       2.311
  WSC                   99.99    702.25   1550.39      14.815
  -----------------------------------------------------------
  System                61.88   2498.03   4233.39      31.461
  
  
  ********************
  Link Flow Summary
  ********************
  
  -----------------------------------------------------------------------------
                                 Maximum  Time of Max   Maximum    Max/    Max/
                                  |Flow|   Occurrence   |Veloc|    Full    Full
  Link                 Type          LPS  days hr:min     m/sec    Flow   Depth
  -----------------------------------------------------------------------------
  1                    CONDUIT   1550.39     0  02:07      3.73    0.54    0.52
  HS02004478WS02006287 CONDUIT   2306.15     0  01:58      2.61    0.65    1.00
  HS02004479HS02004480 CONDUIT    395.50     0  01:53      0.57    0.38    1.00
  HS02004480HS02004478 CONDUIT   2073.62     0  01:51      2.96    8.73    1.00
  HS02004770HS02004777 CONDUIT    680.51     0  01:49      0.97    1.24    1.00
  HS02004777HS02004785 CONDUIT    697.66     0  01:49      1.05    0.86    1.00
  HS02004785HS02004788 CONDUIT    625.19     0  01:50      1.35    4.71    1.00
  HS02004788HS02004792 CONDUIT    886.32     0  02:05      1.45    0.59    1.00
  HS02004792HS02004799 CONDUIT   1566.38     0  01:51      2.24    0.96    1.00
  HS02004799HS02004480 CONDUIT   1724.35     0  01:51      2.46    2.18    1.00
  HS02004802HS02004478 CONDUIT   1233.55     0  02:03      1.76    1.09    1.00
  HS02004807HS02004802 CONDUIT   1233.86     0  02:03      1.76    2.36    1.00
  HS02004817HS02004807 CONDUIT   1197.01     0  02:04      1.71    0.71    1.00
  HS02004817HS02004824 CONDUIT   1196.43     0  02:04      1.71    0.54    1.00
  HS02004824HS02004830 CONDUIT    590.90     0  02:05      0.84    0.77    1.00
  HS02004830HS02004837 CONDUIT    590.34     0  02:04      0.92    0.59    1.00
  HS02004837HS02004842 CONDUIT    785.15     0  01:51      1.12    0.47    1.00
  HS02004842HS02004848 CONDUIT    784.78     0  01:51      1.24    0.46    1.00
  HS02004848HS02004852 CONDUIT   1012.31     0  01:53      1.58    1.14    1.00
  HS02004852HS02004856 CONDUIT    982.79     0  01:52      1.46    1.12    1.00
  HS02004856HS02004862 CONDUIT   1049.41     0  01:52      1.69    1.05    1.00
  HS02004862HS02004870 CONDUIT   1134.30     0  01:52      1.86    1.23    1.00
  HS02004870HS02004876 CONDUIT   1257.78     0  02:07      1.80    0.83    1.00
  HS02004876HS02004881 CONDUIT   1515.69     0  02:07      2.33   16.12    1.00
  HS02004881HS02006253 CONDUIT   1672.05     0  02:05      2.75    0.33    1.00
  HS02004901HS02004770 CONDUIT    265.79     0  02:23      0.38    1.00    1.00
  WS02001211WS02001212 CONDUIT    215.12     0  03:17      0.54    0.16    0.70
  WS02001212WS02001213 CONDUIT    222.37     0  03:17      1.04    0.34    0.57
  WS02001213WS02003059 CONDUIT    230.47     0  03:17      0.46    0.38    0.91
  WS02003059WS02003060 CONDUIT    239.72     0  03:18      0.64    0.16    0.83
  WS02003060WS02003069 CONDUIT   1549.61     0  02:06      2.10    0.61    0.62
  WS02003066WSF200     CONDUIT   1343.92     0  02:05      3.26    0.23    0.39
  WS02003067WS02003066 CONDUIT   1343.74     0  02:05      2.04    0.43    0.57
  WS02003069WS02003072 CONDUIT   1549.25     0  02:06      1.91    0.75    0.67
  WS02003072WS02003073 CONDUIT   1549.02     0  02:07      2.08    3.35    0.63
  WS02004138WS02004139 CONDUIT    190.00     0  00:33      2.16    0.04    0.42
  WS02004139WS02001211 CONDUIT    199.38     0  03:16      0.55    0.25    0.62
  WS02004401WS02004402 CONDUIT   1343.40     0  02:05      2.07    1.61    1.00
  WS02004402WS02004403 CONDUIT   1342.95     0  02:05      1.84    1.93    1.00
  WS02004403WS02004404 CONDUIT   1343.01     0  02:05      1.71    0.97    1.00
  WS02004404WS02004405 CONDUIT   1343.68     0  02:04      1.85   13.16    1.00
  WS02004405WS02004406 CONDUIT   1343.08     0  02:05      1.73    2.65    1.00
  WS02004406WS02004407 CONDUIT   1343.68     0  02:05      1.73    0.60    1.00
  WS02004407WS02004409 CONDUIT   1343.27     0  02:05      1.92    0.48    1.00
  WS02004409WS02004410 CONDUIT   1343.57     0  02:05      1.71    1.74    1.00
  WS02004410WS02004411 CONDUIT   1343.81     0  02:05      1.71    1.84    1.00
  WS02004411WS02004412 CONDUIT   1343.71     0  02:05      1.71    1.91    1.00
  WS02004412WS02004413 CONDUIT   1343.52     0  02:05      1.71    0.90    1.00
  WS02004413WS02003067 CONDUIT   1343.83     0  02:05      2.07    0.58    0.77
  WS02006109WS02006110 CONDUIT   1306.78     0  00:00      3.15    2.51    1.00
  WS02006110WS02006113 CONDUIT   1125.23     0  02:28      2.24    1.02    1.00
  WS02006111WS02006112 CONDUIT   2307.30     0  00:00      9.18    1.10    1.00
  WS02006112WS02006115 CONDUIT   2152.75     0  00:00      2.85    1.27    1.00
  WS02006113WS02006111 CONDUIT   1176.04     0  00:00      2.68    1.41    1.00
  WS02006115WS02006116 CONDUIT   1342.80     0  02:04      1.81    1.72    1.00
  WS02006116WS02004401 CONDUIT   1343.13     0  02:05      2.21    1.85    1.00
  WS02006228WS02006109 CONDUIT   1288.19     0  01:58      2.56    5.63    1.00
  WS02006229WS02006228 CONDUIT   1289.00     0  01:58      2.56    4.27    1.00
  WS02006230WS02006229 CONDUIT   1016.17     0  01:58      2.64   22.61    1.00
  WS02006231WS02006230 CONDUIT    453.36     0  01:53      1.36    6.88    1.00
  WS02006232WS02006231 CONDUIT    453.48     0  01:53      1.18    0.95    1.00
  WS02006234WS02006232 CONDUIT    453.13     0  01:53      1.18    0.92    1.00
  WS02006235WS02006234 CONDUIT    436.82     0  03:38      1.15    4.61    1.00
  WS02006238WS02006235 CONDUIT    419.64     0  03:46      1.26    0.94    1.00
  WS02006239WS02006238 CONDUIT    419.53     0  03:46      1.09    1.34    1.00
  WS02006240WS02006239 CONDUIT    419.49     0  03:46      1.19    1.32    1.00
  WS02006242WS02006240 CONDUIT    419.43     0  03:46      1.09    1.67    1.00
  WS02006243WS02006242 CONDUIT    419.40     0  03:41      1.28    0.90    1.00
  WS02006245WS02006243 CONDUIT    419.68     0  03:41      1.35    1.24    1.00
  WS02006247WS02006245 CONDUIT    419.96     0  03:41      1.37    3.33    1.00
  WS02006248WS02006247 CONDUIT    420.19     0  03:41      1.40    0.91    1.00
  WS02006249WS02006248 CONDUIT    424.06     0  03:32      1.37    2.32    1.00
  WS02006251WS02006249 CONDUIT   1380.63     0  02:05      3.59    3.98    1.00
  WS02006252WS02006251 CONDUIT    410.74     0  01:40     15.58    1.51    1.00
  WS02006253WS02006251 CONDUIT   1714.21     0  02:05      4.45    5.14    1.00
  WS02006256WS02006235 CONDUIT    225.98     0  01:31      3.20    2.39    1.00
  WS02006280WS02006229 CONDUIT   2306.32     0  01:58      4.34    0.49    1.00
  WS02006284WS02006280 CONDUIT   2304.57     0  01:58      3.03    0.97    1.00
  WS02006287WS02006284 CONDUIT   2305.24     0  01:58      2.94    1.07    1.00
  WSF200WS02003060     CONDUIT   1344.31     0  02:05      2.36    0.30    0.51
  YS02001580YS02001583 CONDUIT     78.65     0  01:48      0.57    0.30    1.00
  YS02001583YS02001586 CONDUIT    135.61     0  01:48      0.57    0.21    1.00
  YS02001586YS02001590 CONDUIT    318.02     0  02:01      1.24    0.56    1.00
  YS02001590YS02001593 CONDUIT    318.06     0  01:55      1.12    2.00    1.00
  YS02001593YS02001596 CONDUIT    318.14     0  02:01      1.60    0.50    1.00
  YS02001596YS02001600 CONDUIT    317.98     0  02:01      1.12    0.62    1.00
  YS02001600YS02001601 CONDUIT    317.87     0  02:01      1.12    0.55    1.00
  YS02001601YS02001602 CONDUIT    501.78     0  01:47      1.77    1.81    1.00
  YS02001602YS02001605 CONDUIT    501.83     0  01:47      1.77   10.62    1.00
  YS02001605YS02001607 CONDUIT    501.38     0  01:47      1.77    2.75    1.00
  YS02001607YS02001610 CONDUIT    501.35     0  01:47      0.64    0.48    1.00
  YS02001610YS02001613 CONDUIT    614.05     0  02:06      0.78    0.71    1.00
  YS02001613YS02001616 CONDUIT    613.91     0  02:06      0.78    0.53    1.00
  YS02001616YS02001619 CONDUIT    613.81     0  02:06      0.78    1.07    1.00
  YS02001619YS02001622 CONDUIT   1053.44     0  02:05      1.34    1.55    1.00
  YS02001622YS02001625 CONDUIT   1053.31     0  02:05      1.34    0.56    1.00
  YS02001625YS02001629 CONDUIT    931.97     0  01:52      1.19    0.44    1.00
  YS02001629YS02163301 CONDUIT    933.04     0  01:52      1.19    1.15    1.00
  YS02001633YS02163601 CONDUIT   1378.75     0  01:53      1.76    1.45    1.00
  YS02001641YS02001644 CONDUIT   1375.18     0  01:53      1.75    4.45    1.00
  YS02001644YS02001647 CONDUIT   1782.63     0  01:53      2.27    1.05    1.00
  YS02001647YS02001649 CONDUIT   1783.17     0  01:53      2.32    0.94    1.00
  YS02001649YS02001757 CONDUIT   2058.89     0  01:52      2.63    1.25    1.00
  YS02001652YS02001649 CONDUIT   1083.60     0  02:05      1.38    0.54    1.00
  YS02001655YS02001652 CONDUIT   1083.74     0  02:05      1.38    0.53    1.00
  YS02001658YS02001655 CONDUIT   1083.74     0  02:05      1.85    0.46    1.00
  YS02001661YS02001658 CONDUIT   1083.28     0  02:05      2.30    0.43    1.00
  YS02001664YS02001661 CONDUIT   1081.45     0  02:05      2.24    0.34    0.83
  YS02001745YS02001748 CONDUIT    670.47     0  02:05      2.14    0.26    0.92
  YS02001748YS02001751 CONDUIT    672.23     0  02:05      1.64    0.34    1.00
  YS02001751YS02001754 CONDUIT    671.94     0  02:05      1.33    0.32    1.00
  YS02001754YS02001757 CONDUIT    672.63     0  02:05      0.86    0.27    1.00
  YS02001757CaochengTiaoxuchi CONDUIT   3564.94     0  02:02      6.25    1.54    1.00
  YS02001759YS02001757 CONDUIT   1453.46     0  02:02      1.85    1.03    1.00
  YS02001762YS02001759 CONDUIT    794.58     0  01:57      1.01    0.92    1.00
  YS02001765YS02001762 CONDUIT    796.94     0  01:57      1.01    0.75    1.00
  YS02001767YS02001765 CONDUIT    798.26     0  01:57      1.02    1.00    1.00
  YS02001770YS02001767 CONDUIT    798.24     0  01:57      1.02    3.16    1.00
  YS02001774YS02001770 CONDUIT    825.80     0  02:05      1.05    0.53    1.00
  YS02001779YS02001774 CONDUIT    826.46     0  02:05      1.05    0.42    1.00
  YS02001783YS02001784 CONDUIT   1163.73     0  02:04      2.32    1.60    1.00
  YS02001784YS02001785 CONDUIT   1164.51     0  02:04      2.32    2.71    1.00
  YS02001786YS02001788 CONDUIT   1164.55     0  02:04      2.48    2.24    1.00
  YS02001788YS02001790 CONDUIT   1218.79     0  02:01      2.72    0.90    1.00
  YS02001790YS02001791 CONDUIT   1363.86     0  02:01      3.49    1.48    1.00
  YS02001791YS02001793 CONDUIT   1417.51     0  02:01      6.76    0.61    1.00
  YS02001793JiankangQianchi CONDUIT   1697.58     0  02:01     24.97    0.13    1.00
  YS02001882YS02001884 CONDUIT     39.09     0  01:51      0.17    0.04    1.00
  YS02001884YS02001887 CONDUIT     42.80     0  01:50      0.12    0.06    1.00
  YS02001887YS02001890 CONDUIT    959.54     0  02:05      1.22    1.64    1.00
  YS02001890YS02001895 CONDUIT    517.33     0  02:07      0.66    0.24    1.00
  YS02001895YS02001898 CONDUIT    517.43     0  02:08      0.66    0.90    1.00
  YS02001898YS02001901 CONDUIT    517.50     0  02:08      0.66    0.33    1.00
  YS02001901YS02001904 CONDUIT    517.32     0  02:01      0.66    0.80    1.00
  YS02001904YS02001907 CONDUIT    517.30     0  02:07      0.66    0.18    1.00
  YS02001907YS02006553 CONDUIT    794.34     0  02:24      0.88    0.93    1.00
  YS02001910YS02001907 CONDUIT   1839.02     0  02:05      2.34    1.04    1.00
  YS02001915YS02001910 CONDUIT   1838.47     0  02:05      2.34    0.91    1.00
  YS02001918YS02001915 CONDUIT    618.53     0  02:05      0.79    0.34    1.00
  YS02001920YS02001918 CONDUIT    617.06     0  02:05      0.79    0.60    1.00
  YS02001923YS02001920 CONDUIT    613.17     0  02:05      0.78    0.28    1.00
  YS02001926YS02001923 CONDUIT    610.42     0  02:05      0.94    0.87    1.00
  YS02001929YS02001926 CONDUIT    610.35     0  02:05      1.10    0.29    1.00
  YS02006553YS02006556 CONDUIT    793.97     0  02:24      1.01    0.68    1.00
  YS02006556YS02006558 CONDUIT    793.88     0  02:24      1.01    0.63    1.00
  YS02006558YS02006561 CONDUIT   1163.43     0  02:04      4.11    2.57    1.00
  YS02006561YS02001783 CONDUIT   1163.42     0  02:04      2.31    0.60    1.00
  YS02163301YS02001633 CONDUIT    932.18     0  01:52      1.19    0.88    1.00
  YS02163601YS02164001 CONDUIT   1377.93     0  01:53      1.75    1.22    1.00
  YS02164001YS02001641 CONDUIT   1375.98     0  01:53      1.75    1.88    1.00
  YSB1154YSB6556       CONDUIT    554.96     0  02:05      1.44    1.00    1.00
  YSB1171HS02004479    CONDUIT    394.84     0  01:53      0.79    0.26    1.00
  YSB1174YSB1171       CONDUIT    450.18     0  02:05      1.17    0.69    1.00
  YSB6556YSB1171       CONDUIT    555.23     0  02:05      1.44    0.57    1.00
  CC-R1                PUMP       683.00     0  00:10              1.00
  CC-R2                PUMP       683.00     0  00:20              1.00
  CC-S1                PUMP       200.00     0  00:10              1.00
  CC-S2                PUMP       200.00     0  00:20              1.00
  JK-R1                PUMP      1000.00     0  00:00              1.00
  JK-R2                PUMP      1000.00     0  02:00              1.00
  JK-S                 PUMP       300.00     0  01:34              1.00
  XR-1                 PUMP        95.00     0  00:10              1.00
  XR-2                 PUMP        95.00     0  00:28              1.00
  XR-3                 PUMP         0.00     0  00:00              0.00
  XR-4                 PUMP         0.00     0  00:00              0.00
  
  
  ***************************
  Flow Classification Summary
  ***************************
  
  -------------------------------------------------------------------------------------
                      Adjusted    ---------- Fraction of Time in Flow Class ---------- 
                       /Actual         Up    Down  Sub   Sup   Up    Down  Norm  Inlet 
  Conduit               Length    Dry  Dry   Dry   Crit  Crit  Crit  Crit  Ltd   Ctrl  
  -------------------------------------------------------------------------------------
  1                       1.00   0.00  0.00  0.00  0.00  1.00  0.00  0.00  0.52  0.00
  HS02004478WS02006287    1.00   0.17  0.00  0.00  0.58  0.25  0.00  0.00  0.43  0.00
  HS02004479HS02004480    1.00   0.05  0.00  0.00  0.95  0.00  0.00  0.00  0.14  0.00
  HS02004480HS02004478    1.00   0.15  0.00  0.00  0.54  0.00  0.00  0.30  0.00  0.00
  HS02004770HS02004777    1.00   0.00  0.15  0.00  0.85  0.00  0.00  0.00  0.03  0.00
  HS02004777HS02004785    1.00   0.00  0.00  0.00  1.00  0.00  0.00  0.00  0.14  0.00
  HS02004785HS02004788    1.00   0.00  0.00  0.00  1.00  0.00  0.00  0.00  0.00  0.00
  HS02004788HS02004792    1.00   0.00  0.00  0.00  1.00  0.00  0.00  0.00  0.83  0.00
  HS02004792HS02004799    1.00   0.00  0.00  0.00  1.00  0.00  0.00  0.00  0.75  0.00
  HS02004799HS02004480    1.00   0.00  0.05  0.00  0.83  0.00  0.12  0.00  0.00  0.00
  HS02004802HS02004478    1.00   0.15  0.00  0.00  0.84  0.00  0.00  0.00  0.02  0.00
  HS02004807HS02004802    1.00   0.15  0.00  0.00  0.84  0.00  0.00  0.01  0.00  0.00
  HS02004817HS02004807    1.00   0.00  0.15  0.00  0.85  0.00  0.00  0.00  0.02  0.00
  HS02004817HS02004824    1.00   0.00  0.00  0.00  1.00  0.00  0.00  0.00  0.71  0.00
  HS02004824HS02004830    1.00   0.00  0.00  0.00  1.00  0.00  0.00  0.00  0.01  0.00
  HS02004830HS02004837    1.00   0.00  0.00  0.00  1.00  0.00  0.00  0.00  0.78  0.00
  HS02004837HS02004842    1.00   0.00  0.00  0.00  1.00  0.00  0.00  0.00  0.14  0.00
  HS02004842HS02004848    1.00   0.00  0.15  0.00  0.85  0.00  0.00  0.00  0.38  0.00
  HS02004848HS02004852    1.00   0.15  0.00  0.00  0.85  0.00  0.00  0.00  0.58  0.00
  HS02004852HS02004856    1.00   0.15  0.01  0.00  0.84  0.00  0.00  0.00  0.52  0.00
  HS02004856HS02004862    1.00   0.00  0.17  0.00  0.83  0.00  0.00  0.00  0.62  0.00
  HS02004862HS02004870    1.00   0.00  0.00  0.00  1.00  0.00  0.00  0.00  0.04  0.00
  HS02004870HS02004876    1.00   0.00  0.00  0.00  1.00  0.00  0.00  0.00  0.77  0.00
  HS02004876HS02004881    1.00   0.00  0.00  0.00  0.79  0.21  0.00  0.00  0.00  0.00
  HS02004881HS02006253    1.00   0.01  0.06  0.00  0.68  0.02  0.00  0.23  0.45  0.00
  HS02004901HS02004770    1.00   0.15  0.00  0.00  0.85  0.00  0.00  0.00  0.00  0.00
  WS02001211WS02001212    1.00   0.00  0.02  0.00  0.98  0.00  0.00  0.00  0.00  0.00
  WS02001212WS02001213    1.00   0.02  0.01  0.00  0.68  0.00  0.30  0.00  0.00  0.00
  WS02001213WS02003059    1.00   0.00  0.00  0.00  1.00  0.00  0.00  0.00  0.00  0.00
  WS02003059WS02003060    1.00   0.00  0.00  0.00  1.00  0.00  0.00  0.00  0.04  0.00
  WS02003060WS02003069    1.00   0.00  0.00  0.00  0.98  0.02  0.00  0.00  0.18  0.00
  WS02003066WSF200        1.00   0.10  0.00  0.00  0.00  0.90  0.00  0.00  0.51  0.00
  WS02003067WS02003066    1.00   0.09  0.01  0.00  0.90  0.00  0.00  0.00  0.00  0.00
  WS02003069WS02003072    1.00   0.00  0.00  0.00  1.00  0.00  0.00  0.00  0.27  0.00
  WS02003072WS02003073    1.00   0.00  0.00  0.00  0.00  0.00  0.00  1.00  0.00  0.00
  WS02004138WS02004139    1.00   0.01  0.00  0.00  0.97  0.02  0.00  0.00  0.97  0.00
  WS02004139WS02001211    1.00   0.00  0.00  0.00  1.00  0.00  0.00  0.00  0.01  0.00
  WS02004401WS02004402    1.00   0.00  0.00  0.00  1.00  0.00  0.00  0.00  0.00  0.00
  WS02004402WS02004403    1.00   0.00  0.00  0.00  1.00  0.00  0.00  0.00  0.00  0.00
  WS02004403WS02004404    1.00   0.00  0.00  0.00  1.00  0.00  0.00  0.00  0.00  0.00
  WS02004404WS02004405    1.00   0.00  0.00  0.00  1.00  0.00  0.00  0.00  0.00  0.00
  WS02004405WS02004406    1.00   0.00  0.00  0.00  1.00  0.00  0.00  0.00  0.00  0.00
  WS02004406WS02004407    1.00   0.00  0.00  0.00  1.00  0.00  0.00  0.00  0.01  0.00
  WS02004407WS02004409    1.00   0.00  0.00  0.00  0.98  0.02  0.00  0.00  0.75  0.00
  WS02004409WS02004410    1.00   0.00  0.00  0.00  1.00  0.00  0.00  0.00  0.01  0.00
  WS02004410WS02004411    1.00   0.00  0.00  0.00  1.00  0.00  0.00  0.00  0.02  0.00
  WS02004411WS02004412    1.00   0.00  0.00  0.00  1.00  0.00  0.00  0.00  0.00  0.00
  WS02004412WS02004413    1.00   0.00  0.00  0.00  1.00  0.00  0.00  0.00  0.02  0.00
  WS02004413WS02003067    1.00   0.00  0.09  0.00  0.00  0.00  0.91  0.00  0.00  0.00
  WS02006109WS02006110    1.00   0.00  0.00  0.00  1.00  0.00  0.00  0.00  0.00  0.00
  WS02006110WS02006113    1.00   0.00  0.00  0.00  1.00  0.00  0.00  0.00  0.00  0.00
  WS02006111WS02006112    1.00   0.00  0.00  0.00  1.00  0.00  0.00  0.00  0.71  0.00
  WS02006112WS02006115    1.00   0.00  0.00  0.00  1.00  0.00  0.00  0.00  0.00  0.00
  WS02006113WS02006111    1.00   0.00  0.00  0.00  0.28  0.72  0.00  0.00  0.18  0.00
  WS02006115WS02006116    1.00   0.00  0.00  0.00  1.00  0.00  0.00  0.00  0.00  0.00
  WS02006116WS02004401    1.00   0.00  0.00  0.00  1.00  0.00  0.00  0.00  0.00  0.00
  WS02006228WS02006109    1.00   0.00  0.00  0.00  1.00  0.00  0.00  0.00  0.00  0.00
  WS02006229WS02006228    1.00   0.00  0.00  0.00  1.00  0.00  0.00  0.00  0.00  0.00
  WS02006230WS02006229    1.00   0.00  0.00  0.00  1.00  0.00  0.00  0.00  0.00  0.00
  WS02006231WS02006230    1.00   0.00  0.00  0.00  0.61  0.00  0.38  0.00  0.00  0.00
  WS02006232WS02006231    1.00   0.00  0.00  0.00  0.99  0.00  0.01  0.00  0.01  0.00
  WS02006234WS02006232    1.00   0.00  0.00  0.00  1.00  0.00  0.00  0.00  0.03  0.00
  WS02006235WS02006234    1.00   0.04  0.00  0.00  0.94  0.00  0.02  0.00  0.00  0.00
  WS02006238WS02006235    1.00   0.03  0.01  0.00  0.96  0.00  0.00  0.00  0.00  0.00
  WS02006239WS02006238    1.00   0.03  0.00  0.00  0.96  0.00  0.00  0.01  0.00  0.00
  WS02006240WS02006239    1.00   0.02  0.00  0.00  0.92  0.00  0.00  0.05  0.01  0.00
  WS02006242WS02006240    1.00   0.02  0.01  0.00  0.96  0.00  0.01  0.00  0.00  0.00
  WS02006243WS02006242    1.00   0.01  0.00  0.00  0.97  0.00  0.00  0.02  0.21  0.00
  WS02006245WS02006243    1.00   0.01  0.00  0.00  0.92  0.00  0.00  0.07  0.00  0.00
  WS02006247WS02006245    1.00   0.01  0.00  0.00  0.96  0.00  0.00  0.03  0.00  0.00
  WS02006248WS02006247    1.00   0.01  0.00  0.00  0.98  0.00  0.00  0.02  0.22  0.00
  WS02006249WS02006248    1.00   0.00  0.01  0.00  0.85  0.00  0.14  0.00  0.00  0.00
  WS02006251WS02006249    1.00   0.00  0.00  0.00  1.00  0.00  0.00  0.00  0.22  0.00
  WS02006252WS02006251    1.00   0.01  0.07  0.00  0.31  0.00  0.62  0.00  0.03  0.00
  WS02006253WS02006251    1.00   0.01  0.00  0.00  0.99  0.00  0.00  0.00  0.00  0.00
  WS02006256WS02006235    1.00   0.01  0.03  0.00  0.96  0.00  0.00  0.00  0.00  0.00
  WS02006280WS02006229    1.00   0.16  0.00  0.00  0.26  0.02  0.00  0.56  0.00  0.00
  WS02006284WS02006280    1.00   0.16  0.00  0.00  0.20  0.02  0.00  0.62  0.00  0.00
  WS02006287WS02006284    1.00   0.14  0.03  0.00  0.50  0.33  0.00  0.00  0.52  0.00
  WSF200WS02003060        1.00   0.00  0.10  0.00  0.40  0.50  0.00  0.00  0.27  0.00
  YS02001580YS02001583    1.00   0.26  0.38  0.00  0.36  0.00  0.00  0.00  0.49  0.00
  YS02001583YS02001586    1.00   0.17  0.41  0.00  0.41  0.00  0.00  0.00  0.49  0.00
  YS02001586YS02001590    1.00   0.15  0.00  0.00  0.66  0.05  0.00  0.14  0.44  0.00
  YS02001590YS02001593    1.00   0.15  0.00  0.00  0.25  0.00  0.60  0.00  0.00  0.00
  YS02001593YS02001596    1.00   0.15  0.00  0.00  0.34  0.02  0.00  0.50  0.07  0.00
  YS02001596YS02001600    1.00   0.15  0.00  0.00  0.43  0.01  0.00  0.40  0.06  0.00
  YS02001600YS02001601    1.00   0.15  0.00  0.00  0.84  0.00  0.00  0.00  0.38  0.00
  YS02001601YS02001602    1.00   0.15  0.00  0.00  0.85  0.00  0.00  0.00  0.00  0.00
  YS02001602YS02001605    1.00   0.15  0.00  0.00  0.85  0.00  0.00  0.00  0.00  0.00
  YS02001605YS02001607    1.00   0.15  0.00  0.00  0.85  0.00  0.00  0.00  0.00  0.00
  YS02001607YS02001610    1.00   0.15  0.00  0.00  0.84  0.00  0.00  0.00  0.01  0.00
  YS02001610YS02001613    1.00   0.15  0.00  0.00  0.85  0.00  0.00  0.00  0.00  0.00
  YS02001613YS02001616    1.00   0.15  0.00  0.00  0.85  0.00  0.00  0.00  0.00  0.00
  YS02001616YS02001619    1.00   0.15  0.00  0.00  0.85  0.00  0.00  0.00  0.00  0.00
  YS02001619YS02001622    1.00   0.15  0.00  0.00  0.85  0.00  0.00  0.00  0.04  0.00
  YS02001622YS02001625    1.00   0.15  0.00  0.00  0.85  0.00  0.00  0.00  0.04  0.00
  YS02001625YS02001629    1.00   0.15  0.02  0.00  0.41  0.00  0.41  0.00  0.00  0.00
  YS02001629YS02163301    1.00   0.16  0.01  0.00  0.83  0.00  0.00  0.00  0.00  0.00
  YS02001633YS02163601    1.00   0.00  0.00  0.00  1.00  0.00  0.00  0.00  0.19  0.00
  YS02001641YS02001644    1.00   0.00  0.00  0.00  1.00  0.00  0.00  0.00  0.00  0.00
  YS02001644YS02001647    1.00   0.00  0.17  0.00  0.83  0.00  0.00  0.00  0.00  0.00
  YS02001647YS02001649    1.00   0.00  0.17  0.00  0.64  0.19  0.00  0.00  0.28  0.00
  YS02001649YS02001757    1.00   0.00  0.00  0.00  0.90  0.10  0.00  0.00  0.41  0.00
  YS02001652YS02001649    1.00   0.00  0.00  0.00  0.98  0.02  0.00  0.00  0.44  0.00
  YS02001655YS02001652    1.00   0.00  0.00  0.00  0.48  0.02  0.00  0.50  0.05  0.00
  YS02001658YS02001655    1.00   0.00  0.16  0.00  0.73  0.11  0.00  0.00  0.39  0.00
  YS02001661YS02001658    1.00   0.16  0.00  0.00  0.52  0.33  0.00  0.00  0.41  0.00
  YS02001664YS02001661    1.00   0.15  0.00  0.00  0.75  0.10  0.00  0.00  0.76  0.00
  YS02001745YS02001748    1.00   0.00  0.00  0.00  0.34  0.00  0.00  0.66  0.05  0.00
  YS02001748YS02001751    1.00   0.00  0.00  0.00  0.88  0.12  0.00  0.00  0.53  0.00
  YS02001751YS02001754    1.00   0.00  0.00  0.00  0.46  0.01  0.00  0.53  0.03  0.00
  YS02001754YS02001757    1.00   0.00  0.00  0.00  1.00  0.00  0.00  0.00  0.51  0.00
  YS02001757CaochengTiaoxuchi    1.00   0.00  0.00  0.00  0.71  0.29  0.00  0.00  0.19  0.00
  YS02001759YS02001757    1.00   0.00  0.00  0.00  1.00  0.00  0.00  0.00  0.43  0.00
  YS02001762YS02001759    1.00   0.00  0.00  0.00  1.00  0.00  0.00  0.00  0.03  0.00
  YS02001765YS02001762    1.00   0.00  0.00  0.00  1.00  0.00  0.00  0.00  0.41  0.00
  YS02001767YS02001765    1.00   0.00  0.00  0.00  1.00  0.00  0.00  0.00  0.00  0.00
  YS02001770YS02001767    1.00   0.00  0.00  0.00  1.00  0.00  0.00  0.00  0.00  0.00
  YS02001774YS02001770    1.00   0.00  0.15  0.00  0.85  0.00  0.00  0.00  0.03  0.00
  YS02001779YS02001774    1.00   0.00  0.00  0.00  1.00  0.00  0.00  0.00  0.47  0.00
  YS02001783YS02001784    1.00   0.00  0.18  0.00  0.82  0.00  0.00  0.00  0.39  0.00
  YS02001784YS02001785    1.00   0.00  0.00  0.00  1.00  0.00  0.00  0.00  0.20  0.00
  YS02001786YS02001788    1.00   0.00  0.00  0.00  0.68  0.32  0.00  0.00  0.00  0.00
  YS02001788YS02001790    1.00   0.00  0.00  0.00  0.24  0.76  0.00  0.00  0.70  0.00
  YS02001790YS02001791    1.00   0.00  0.00  0.00  0.01  0.99  0.00  0.00  0.21  0.00
  YS02001791YS02001793    1.00   0.00  0.00  0.00  0.01  0.99  0.00  0.00  0.02  0.00
  YS02001793JiankangQianchi    1.00   0.00  0.00  0.00  0.08  0.92  0.00  0.00  0.17  0.00
  YS02001882YS02001884    1.00   0.16  0.00  0.00  0.83  0.00  0.00  0.00  0.00  0.00
  YS02001884YS02001887    1.00   0.08  0.06  0.00  0.86  0.00  0.00  0.00  0.00  0.00
  YS02001887YS02001890    1.00   0.00  0.00  0.00  0.96  0.00  0.03  0.00  0.00  0.00
  YS02001890YS02001895    1.00   0.00  0.17  0.00  0.83  0.00  0.00  0.00  0.00  0.00
  YS02001895YS02001898    1.00   0.17  0.00  0.00  0.82  0.00  0.01  0.00  0.00  0.00
  YS02001898YS02001901    1.00   0.17  0.00  0.00  0.83  0.00  0.00  0.00  0.01  0.00
  YS02001901YS02001904    1.00   0.17  0.00  0.00  0.83  0.00  0.00  0.00  0.00  0.00
  YS02001904YS02001907    1.00   0.00  0.17  0.00  0.83  0.00  0.00  0.00  0.00  0.00
  YS02001907YS02006553    1.00   0.00  0.01  0.00  0.99  0.00  0.00  0.00  0.00  0.00
  YS02001910YS02001907    1.00   0.00  0.00  0.00  0.97  0.01  0.00  0.02  0.15  0.00
  YS02001915YS02001910    1.00   0.00  0.00  0.00  0.97  0.03  0.00  0.00  0.17  0.00
  YS02001918YS02001915    1.00   0.00  0.00  0.00  0.98  0.02  0.00  0.00  0.62  0.00
  YS02001920YS02001918    1.00   0.00  0.00  0.00  1.00  0.00  0.00  0.00  0.01  0.00
  YS02001923YS02001920    1.00   0.00  0.00  0.00  1.00  0.00  0.00  0.00  0.86  0.00
  YS02001926YS02001923    1.00   0.00  0.11  0.00  0.11  0.00  0.78  0.00  0.00  0.00
  YS02001929YS02001926    1.00   0.00  0.15  0.00  0.85  0.00  0.00  0.00  0.73  0.00
  YS02006553YS02006556    1.00   0.00  0.00  0.00  1.00  0.00  0.00  0.00  0.04  0.00
  YS02006556YS02006558    1.00   0.00  0.00  0.00  1.00  0.00  0.00  0.00  0.00  0.00
  YS02006558YS02006561    1.00   0.17  0.00  0.00  0.10  0.72  0.00  0.00  0.22  0.00
  YS02006561YS02001783    1.00   0.17  0.00  0.00  0.17  0.66  0.00  0.00  0.54  0.00
  YS02163301YS02001633    1.00   0.00  0.16  0.00  0.84  0.00  0.00  0.00  0.00  0.00
  YS02163601YS02164001    1.00   0.00  0.12  0.00  0.88  0.00  0.00  0.00  0.00  0.00
  YS02164001YS02001641    1.00   0.00  0.11  0.00  0.88  0.00  0.00  0.00  0.07  0.00
  YSB1154YSB6556          1.00   0.15  0.00  0.00  0.85  0.00  0.00  0.00  0.02  0.00
  YSB1171HS02004479       1.00   0.06  0.00  0.00  0.92  0.00  0.00  0.02  0.13  0.00
  YSB1174YSB1171          1.00   0.07  0.06  0.00  0.87  0.00  0.00  0.00  0.00  0.00
  YSB6556YSB1171          1.00   0.06  0.09  0.00  0.85  0.00  0.00  0.00  0.00  0.00
  
  
  *************************
  Conduit Surcharge Summary
  *************************
  
  ----------------------------------------------------------------------------
                                                           Hours        Hours 
                         --------- Hours Full --------   Above Full   Capacity
  Conduit                Both Ends  Upstream  Dnstream   Normal Flow   Limited
  ----------------------------------------------------------------------------
  HS02004478WS02006287        0.71      0.71      0.92      0.01         0.01
  HS02004479HS02004480        0.92      0.92      0.94      0.01         0.01
  HS02004480HS02004478        0.84      0.91      0.84      1.90         0.84
  HS02004770HS02004777        0.79      0.79      0.80      0.13         0.08
  HS02004777HS02004785        0.74      0.74      0.80      0.01         0.01
  HS02004785HS02004788        0.73      0.74      0.73      1.67         0.63
  HS02004788HS02004792        0.73      0.73      0.87      0.01         0.01
  HS02004792HS02004799        0.87      0.87      1.03      0.01         0.01
  HS02004799HS02004480        0.91      0.91      1.03      1.17         0.01
  HS02004802HS02004478        0.85      0.85      0.93      0.24         0.01
  HS02004807HS02004802        0.90      0.90      0.92      0.41         0.42
  HS02004817HS02004807        0.90      0.90      1.57      0.01         0.01
  HS02004817HS02004824        0.73      0.73      1.57      0.01         0.01
  HS02004824HS02004830        0.70      0.70      0.73      0.01         0.01
  HS02004830HS02004837        0.65      0.65      0.70      0.01         0.01
  HS02004837HS02004842        0.65      0.65      0.82      0.01         0.01
  HS02004842HS02004848        0.61      0.61      0.82      0.01         0.01
  HS02004848HS02004852        0.61      0.61      0.64      0.03         0.01
  HS02004852HS02004856        0.64      0.64      0.66      0.02         0.01
  HS02004856HS02004862        0.63      0.63      0.67      0.01         0.01
  HS02004862HS02004870        0.67      0.67      0.69      0.30         0.30
  HS02004870HS02004876        0.69      0.69      0.77      0.01         0.01
  HS02004876HS02004881        0.75      0.77      0.75      1.74         0.75
  HS02004881HS02006253        0.75      0.75      1.86      0.01         0.01
  HS02004901HS02004770        0.79      0.79      0.80      0.12         0.01
  WS02003072WS02003073        0.01      0.01      0.01      3.85         0.01
  WS02004401WS02004402        1.69      1.69      1.70      1.63         1.62
  WS02004402WS02004403        1.70      1.70      1.70      1.69         1.67
  WS02004403WS02004404        1.70      1.70      1.77      0.01         0.04
  WS02004404WS02004405        1.76      1.77      1.76      4.77         1.76
  WS02004405WS02004406        1.74      1.76      1.74      2.12         1.74
  WS02004406WS02004407        0.02      0.02      1.74      0.01         0.01
  WS02004407WS02004409        0.02      0.02      1.40      0.01         0.01
  WS02004409WS02004410        1.32      1.40      1.32      1.65         1.32
  WS02004410WS02004411        1.20      1.32      1.20      1.67         1.20
  WS02004411WS02004412        1.07      1.20      1.07      1.69         1.07
  WS02004412WS02004413        1.07      1.07      1.60      0.01         0.01
  WS02004413WS02003067        0.01      0.01      1.60      0.01         0.01
  WS02006109WS02006110        2.04      2.05      2.91      2.06         0.01
  WS02006110WS02006113        1.59      1.59      2.81      0.39         0.01
  WS02006111WS02006112        1.56      1.57      3.44      0.01         0.01
  WS02006112WS02006115        1.65      1.65      2.15      0.01         0.01
  WS02006113WS02006111        1.58      1.59      1.58      1.65         1.58
  WS02006115WS02006116        1.65      1.65      1.66      1.66         1.64
  WS02006116WS02004401        1.68      1.68      1.69      1.68         1.66
  WS02006228WS02006109        2.64      2.91      2.64      3.90         2.64
  WS02006229WS02006228        2.59      2.71      2.59      3.38         2.59
  WS02006230WS02006229        3.09      3.23      3.09      4.75         1.59
  WS02006231WS02006230        1.81      1.81      2.01      4.41         1.39
  WS02006232WS02006231        1.99      1.99      2.47      0.01         0.19
  WS02006234WS02006232        2.09      2.09      2.47      0.01         0.01
  WS02006235WS02006234        2.03      2.03      2.18      3.97         1.37
  WS02006238WS02006235        2.20      2.20      2.42      0.01         0.48
  WS02006239WS02006238        2.24      2.33      2.26      2.13         0.49
  WS02006240WS02006239        2.13      2.16      2.14      2.11         0.43
  WS02006242WS02006240        2.13      2.13      2.55      2.35         1.17
  WS02006243WS02006242        2.15      2.15      2.41      0.01         0.01
  WS02006245WS02006243        2.11      2.13      2.12      1.01         0.42
  WS02006247WS02006245        2.11      2.19      2.11      3.52         0.61
  WS02006248WS02006247        2.09      2.09      2.15      0.01         0.01
  WS02006249WS02006248        2.06      2.07      2.11      1.91         0.01
  WS02006251WS02006249        2.10      2.12      2.11      2.68         2.04
  WS02006252WS02006251        2.78      2.79      2.79      1.89         0.14
  WS02006253WS02006251        2.10      2.10      2.19      1.08         0.02
  WS02006256WS02006235        4.33      4.34      5.72      0.36         0.01
  WS02006280WS02006229        1.08      1.08      1.27      0.01         0.01
  WS02006284WS02006280        0.95      0.95      1.06      0.01         0.01
  WS02006287WS02006284        0.83      0.83      0.96      0.46         0.46
  YS02001580YS02001583        0.87      0.87      0.96      0.01         0.01
  YS02001583YS02001586        0.88      0.88      1.19      0.01         0.01
  YS02001586YS02001590        1.21      1.21      1.28      0.01         0.01
  YS02001590YS02001593        1.29      1.29      1.31      1.27         0.01
  YS02001593YS02001596        1.30      1.30      1.41      0.01         0.01
  YS02001596YS02001600        1.48      1.48      1.78      0.01         0.01
  YS02001600YS02001601        1.84      1.84      2.16      0.01         0.01
  YS02001601YS02001602        2.06      2.06      2.20      1.48         0.01
  YS02001602YS02001605        2.02      2.02      2.06      2.62         0.01
  YS02001605YS02001607        1.99      2.02      2.05      1.68         1.55
  YS02001607YS02001610        1.40      1.40      1.61      0.01         0.01
  YS02001610YS02001613        1.44      1.44      1.61      0.01         0.01
  YS02001613YS02001616        1.35      1.35      1.44      0.01         0.01
  YS02001616YS02001619        1.33      1.33      1.35      0.06         0.11
  YS02001619YS02001622        1.33      1.33      1.35      1.00         0.91
  YS02001622YS02001625        1.35      1.35      1.75      0.01         0.01
  YS02001625YS02001629        1.30      1.30      1.75      0.01         0.01
  YS02001629YS02163301        1.78      1.78      1.81      0.10         0.10
  YS02001633YS02163601        1.86      1.86      1.96      0.15         0.16
  YS02001641YS02001644        1.85      1.86      1.85      1.69         1.38
  YS02001644YS02001647        1.60      1.60      1.85      0.05         0.01
  YS02001647YS02001649        1.60      1.60      1.80      0.01         0.01
  YS02001649YS02001757        1.79      1.80      1.88      0.15         0.08
  YS02001652YS02001649        1.58      1.58      1.80      0.01         0.01
  YS02001655YS02001652        1.18      1.18      1.56      0.01         0.01
  YS02001658YS02001655        0.35      0.35      1.18      0.01         0.01
  YS02001661YS02001658        0.09      0.09      0.35      0.01         0.01
  YS02001664YS02001661        0.01      0.01      0.17      0.01         0.01
  YS02001745YS02001748        0.01      0.01      0.27      0.01         0.01
  YS02001748YS02001751        0.35      0.35      1.13      0.01         0.01
  YS02001751YS02001754        1.13      1.13      1.52      0.01         0.01
  YS02001754YS02001757        1.55      1.55      1.88      0.01         0.01
  YS02001757CaochengTiaoxuchi        1.72      1.88      2.56      0.52         0.31
  YS02001759YS02001757        1.81      1.81      1.88      0.11         0.10
  YS02001762YS02001759        1.76      1.76      1.81      0.01         0.02
  YS02001765YS02001762        1.71      1.71      1.76      0.01         0.01
  YS02001767YS02001765        1.66      1.66      1.71      0.01         0.04
  YS02001770YS02001767        1.66      1.66      1.66      0.75         0.65
  YS02001774YS02001770        1.63      1.63      1.74      0.01         0.01
  YS02001779YS02001774        1.50      1.50      1.74      0.01         0.01
  YS02001783YS02001784        0.71      0.74      0.71      0.94         0.71
  YS02001784YS02001785        0.58      0.71      0.58      1.29         0.58
  YS02001786YS02001788        0.08      0.58      0.08      1.08         0.08
  YS02001788YS02001790        0.08      0.08      0.09      0.01         0.01
  YS02001790YS02001791        0.08      0.09      0.08      0.69         0.07
  YS02001791YS02001793        0.08      0.08      0.10      0.01         0.01
  YS02001793JiankangQianchi        0.09      0.09      0.50      0.01         0.01
  YS02001882YS02001884        0.67      0.67      0.68      0.01         0.01
  YS02001884YS02001887        0.71      0.71      0.73      0.01         0.01
  YS02001887YS02001890        0.75      0.75      0.76      0.22         0.01
  YS02001890YS02001895        0.66      0.66      0.79      0.01         0.01
  YS02001895YS02001898        0.65      0.65      0.66      0.01         0.01
  YS02001898YS02001901        0.66      0.66      0.71      0.01         0.01
  YS02001901YS02001904        0.70      0.70      0.71      0.01         0.01
  YS02001904YS02001907        0.70      0.70      1.05      0.01         0.01
  YS02001907YS02006553        1.29      1.29      1.38      0.01         0.01
  YS02001910YS02001907        0.78      0.78      1.02      0.02         0.03
  YS02001915YS02001910        0.67      0.67      0.78      0.01         0.01
  YS02001918YS02001915        0.57      0.57      0.67      0.01         0.01
  YS02001920YS02001918        0.57      0.57      0.58      0.01         0.01
  YS02001923YS02001920        0.52      0.52      0.58      0.01         0.01
  YS02001926YS02001923        0.22      0.22      0.25      0.01         0.01
  YS02001929YS02001926        0.05      0.05      0.25      0.01         0.01
  YS02006553YS02006556        0.90      0.90      1.05      0.01         0.01
  YS02006556YS02006558        0.97      0.97      1.08      0.01         0.01
  YS02006558YS02006561        0.61      0.89      0.61      1.21         0.61
  YS02006561YS02001783        0.53      0.53      0.74      0.01         0.01
  YS02163301YS02001633        1.81      1.81      1.89      0.01         0.01
  YS02163601YS02164001        1.84      1.84      1.96      0.12         0.01
  YS02164001YS02001641        1.84      1.84      1.86      0.81         0.69
  YSB1154YSB6556              0.99      0.99      1.22      0.01         0.01
  YSB1171HS02004479           0.87      0.87      1.22      0.01         0.01
  YSB1174YSB1171              1.08      1.08      1.52      0.01         0.01
  YSB6556YSB1171              0.99      0.99      1.63      0.01         0.01
  
  
  ***************
  Pumping Summary
  ***************
  
  ---------------------------------------------------------------------------------------------------------
                                                  Min       Avg       Max     Total     Power    % Time Off
                        Percent   Number of      Flow      Flow      Flow    Volume     Usage    Pump Curve
  Pump                 Utilized   Start-Ups       LPS       LPS       LPS  10^6 ltr     Kw-hr    Low   High
  ---------------------------------------------------------------------------------------------------------
  CC-R1                   63.84           8      0.00    573.99    683.00     7.041    126.84    0.0   69.3
  CC-R2                   27.68           8      0.00    598.21    683.00     3.131     55.10    0.0   74.6
  CC-S1                   74.95           8      0.00    177.38    200.00     2.626     16.46    0.0   52.6
  CC-S2                   41.71          10      0.00    179.63    200.00     1.573     10.21    0.0   41.4
  JK-R1                   75.11           8      0.00    263.91   1000.00     4.165     15.39    0.0    0.0
  JK-R2                   30.58           9      0.00    359.67   1000.00     2.312      7.73    0.0    0.0
  JK-S                    38.94          10      0.00    131.02    300.00     0.942     20.21    0.0    0.0
  XR-1                    97.20           1      0.00     95.00     95.00     1.995      8.83    0.0    0.0
  XR-2                    91.96           1      0.00     95.00     95.00     1.887      8.00    0.0    0.0
  XR-3                     0.00           0      0.00      0.00      0.00     0.000      0.00    0.0    0.0
  XR-4                     0.00           0      0.00      0.00      0.00     0.000      0.00    0.0    0.0
  

  Analysis begun on:  Mon Aug 22 16:56:17 2022
  Analysis ended on:  Mon Aug 22 16:56:22 2022
  Total elapsed time: 00:00:05