
  EPA STORM WATER MANAGEMENT MODEL - VERSION 5.1 (Build 5.3.0.dev0)
  --------------------------------------------------------------

  WARNING 04: minimum elevation drop used for Conduit WS02004404WS02004405
  WARNING 03: negative offset ignored for Link YS02001904YS02001907
  
  *********************************************************
  NOTE: The summary statistics displayed in this report are
  based on results found at every computational time step,  
  not just on results from each reporting time step.
  *********************************************************
  
  ****************
  Analysis Options
  ****************
  Flow Units ............... LPS
  Process Models:
    Rainfall/Runoff ........ YES
    RDII ................... NO
    Snowmelt ............... NO
    Groundwater ............ NO
    Flow Routing ........... YES
    Ponding Allowed ........ NO
    Water Quality .......... NO
  Infiltration Method ...... HORTON
  Flow Routing Method ...... DYNWAVE
  Surcharge Method ......... EXTRAN
  Starting Date ............ 01/01/2000 00:00:00
  Ending Date .............. 01/01/2000 06:00:00
  Antecedent Dry Days ...... 8.0
  Report Time Step ......... 00:01:00
  Wet Time Step ............ 00:01:00
  Dry Time Step ............ 00:01:00
  Routing Time Step ........ 30.00 sec
  Variable Time Step ....... YES
  Maximum Trials ........... 8
  Number of Threads ........ 4
  Head Tolerance ........... 0.001500 m
  
  
  **************************        Volume         Depth
  Runoff Quantity Continuity     hectare-m            mm
  **************************     ---------       -------
  Total Precipitation ......         3.485        57.534
  Evaporation Loss .........         0.000         0.000
  Infiltration Loss ........         0.238         3.932
  Surface Runoff ...........         3.183        52.541
  Final Storage ............         0.065         1.070
  Continuity Error (%) .....        -0.016
  
  
  **************************        Volume        Volume
  Flow Routing Continuity        hectare-m      10^6 ltr
  **************************     ---------     ---------
  Dry Weather Inflow .......         0.472         4.722
  Wet Weather Inflow .......         3.182        31.824
  Groundwater Inflow .......         0.000         0.000
  RDII Inflow ..............         0.000         0.000
  External Inflow ..........         0.078         0.784
  External Outflow .........         2.779        27.795
  Flooding Loss ............         1.192        11.919
  Evaporation Loss .........         0.000         0.000
  Exfiltration Loss ........         0.000         0.000
  Initial Stored Volume ....         0.303         3.031
  Final Stored Volume ......         0.173         1.730
  Continuity Error (%) .....        -2.684
  
  
  *************************
  Highest Continuity Errors
  *************************
  Node JK-storage (-12.38%)
  Node YS02001583 (-5.63%)
  Node YS02001884 (5.29%)
  Node CC-storage (-3.02%)
  Node HS02004842 (1.45%)
  
  
  ***************************
  Time-Step Critical Elements
  ***************************
  Link WS02006252WS02006251 (38.77%)
  Link WS02006280WS02006229 (16.16%)
  Link WS02006238WS02006235 (15.39%)
  Link YS02001793JiankangQianchi (7.00%)
  Link YS02001791YS02001793 (4.26%)
  
  
  ********************************
  Highest Flow Instability Indexes
  ********************************
  Link WS02006113WS02006111 (44)
  Link WS02006111WS02006112 (21)
  Link WS02006238WS02006235 (19)
  Link WS02004404WS02004405 (17)
  Link WS02006229WS02006228 (17)
  
  
  *************************
  Routing Time Step Summary
  *************************
  Minimum Time Step           :     0.50 sec
  Average Time Step           :     1.57 sec
  Maximum Time Step           :    30.00 sec
  Percent in Steady State     :    -0.00
  Average Iterations per Step :     3.09
  Percent Not Converging      :     9.27
  
  
  ***************************
  Subcatchment Runoff Summary
  ***************************
  
  ------------------------------------------------------------------------------------------------------------------------------
                            Total      Total      Total      Total     Imperv       Perv      Total       Total     Peak  Runoff
                           Precip      Runon       Evap      Infil     Runoff     Runoff     Runoff      Runoff   Runoff   Coeff
  Subcatchment                 mm         mm         mm         mm         mm         mm         mm    10^6 ltr      LPS
  ------------------------------------------------------------------------------------------------------------------------------
  sub0                      57.53       0.00       0.00       1.00      52.24       3.02      55.27        0.04    25.88   0.961
  sub1                      57.53       0.00       0.00       1.70      49.90       4.63      54.52        0.36   183.42   0.948
  sub10                     57.53       0.00       0.00       1.20      51.59       3.40      54.99        0.61   312.66   0.956
  sub11                     57.53       0.00       0.00       1.19      51.63       3.42      55.05        0.64   344.41   0.957
  sub12                     57.53       0.00       0.00       1.93      48.86       5.55      54.41        0.48   271.21   0.946
  sub14                     57.53       0.00       0.00       1.35      51.05       3.83      54.88        0.52   275.86   0.954
  sub15                     57.53       0.00       0.00       5.24      39.26      12.02      51.29        0.88   421.94   0.891
  sub16                     57.53       0.00       0.00       5.44      37.62      13.55      51.17        0.54   281.50   0.889
  sub17                     57.53       0.00       0.00       5.30      38.18      13.11      51.29        0.44   229.06   0.891
  sub2                      57.53       0.00       0.00       7.43      35.28      13.86      49.14        0.46   183.74   0.854
  sub22                     57.53       0.00       0.00       7.92      31.99      16.82      48.81        3.08  1392.94   0.848
  sub23                     57.53       0.00       0.00       6.48      35.36      14.81      50.18        2.39  1158.25   0.872
  sub3                      57.53       0.00       0.00       8.05      35.21      13.24      48.45        1.09   392.35   0.842
  sub4                      57.53       0.00       0.00       1.89      49.59       4.44      54.04        1.13   440.53   0.939
  sub5                      57.53       0.00       0.00       1.05      52.14       2.98      55.12        0.62   316.65   0.958
  sub60                     57.53       0.00       0.00       1.81      49.39       5.09      54.48        0.72   389.60   0.947
  sub61                     57.53       0.00       0.00       2.63      46.59       7.16      53.75        0.99   539.15   0.934
  sub62                     57.53       0.00       0.00       1.21      51.58       3.40      54.98        1.51   767.14   0.956
  sub63                     57.53       0.00       0.00       4.82      39.85      11.87      51.72        1.17   603.15   0.899
  sub64                     57.53       0.00       0.00       2.44      47.63       6.19      53.82        1.29   622.33   0.935
  sub65                     57.53       0.00       0.00       2.11      48.71       5.37      54.08        1.49   694.95   0.940
  sub66                     57.53       0.00       0.00       5.91      39.66      10.78      50.43        2.35   884.90   0.877
  sub67                     57.53       0.00       0.00       1.17      51.66       3.44      55.10        1.02   577.78   0.958
  sub68                     57.53       0.00       0.00       2.17      48.25       5.88      54.13        1.49   782.95   0.941
  sub69                     57.53       0.00       0.00       1.93      48.70       6.70      55.41        2.05   928.25   0.963
  sub7                      57.53       0.00       0.00       1.33      51.08       3.85      54.93        0.19   101.47   0.955
  sub70                     57.53       0.00       0.00       6.33      37.67      13.23      50.91        1.47   508.35   0.885
  sub71                     57.53       0.00       0.00       1.24      51.51       3.37      54.87        1.43   675.83   0.954
  sub72                     57.53       0.00       0.00       1.10      51.96       2.93      54.88        0.75   324.00   0.954
  sub8                      57.53       0.00       0.00       1.35      51.06       3.83      54.89        0.35   187.29   0.954
  sub9                      57.53       0.00       0.00       1.35      51.06       3.83      54.89        0.26   140.11   0.954
  
  
  ******************
  Node Depth Summary
  ******************
  
  ---------------------------------------------------------------------------------
                                 Average  Maximum  Maximum  Time of Max    Reported
                                   Depth    Depth      HGL   Occurrence   Max Depth
  Node                 Type       Meters   Meters   Meters  days hr:min      Meters
  ---------------------------------------------------------------------------------
  HS02004478           JUNCTION     0.22     1.59    10.82     0  01:51        1.54
  HS02004479           JUNCTION     0.30     1.72    10.92     0  01:51        1.66
  HS02004480           JUNCTION     0.27     1.70    10.94     0  01:51        1.62
  HS02004770           JUNCTION     0.27     1.42    11.25     0  01:48        1.42
  HS02004777           JUNCTION     0.29     1.48    11.28     0  01:48        1.45
  HS02004785           JUNCTION     0.19     1.49    11.39     0  01:48        1.33
  HS02004788           JUNCTION     0.16     1.42    11.32     0  01:48        1.32
  HS02004792           JUNCTION     0.21     1.60    11.12     0  01:48        1.60
  HS02004799           JUNCTION     0.33     1.76    10.97     0  01:51        1.76
  HS02004802           JUNCTION     0.32     1.80    10.93     0  01:51        1.70
  HS02004807           JUNCTION     0.29     1.92    11.09     0  01:51        1.77
  HS02004817           JUNCTION     0.60     2.44    11.29     0  01:51        2.13
  HS02004824           JUNCTION     0.17     2.01    11.41     0  01:51        1.62
  HS02004830           JUNCTION     0.16     2.03    11.50     0  01:51        1.56
  HS02004837           JUNCTION     0.13     2.00    11.58     0  01:51        1.46
  HS02004842           JUNCTION     0.43     2.22    11.49     0  01:51        1.76
  HS02004848           JUNCTION     0.11     2.07    11.67     0  01:51        1.43
  HS02004852           JUNCTION     0.12     2.12    11.63     0  01:51        1.48
  HS02004856           JUNCTION     0.18     2.07    11.50     0  01:51        1.53
  HS02004862           JUNCTION     0.13     2.00    11.38     0  01:50        1.51
  HS02004870           JUNCTION     0.13     2.10    11.39     0  01:50        1.51
  HS02004876           JUNCTION     0.18     2.11    11.14     0  01:51        1.63
  HS02004881           JUNCTION     0.11     1.84    10.87     0  01:51        1.44
  HS02004901           JUNCTION     0.28     1.42    11.24     0  01:48        1.42
  WS02001211           JUNCTION     0.65     0.80     5.64     0  01:58        0.80
  WS02001212           JUNCTION     0.39     0.57     5.63     0  01:57        0.57
  WS02001213           JUNCTION     0.62     0.86     5.62     0  01:57        0.86
  WS02003059           JUNCTION     0.68     0.93     5.62     0  01:56        0.93
  WS02003060           JUNCTION     0.41     0.68     5.61     0  01:56        0.68
  WS02003066           JUNCTION     0.25     0.45     6.00     0  01:55        0.45
  WS02003067           JUNCTION     0.59     0.88     6.20     0  01:55        0.88
  WS02003069           JUNCTION     0.46     0.77     5.35     0  01:57        0.77
  WS02003072           JUNCTION     0.52     0.81     5.18     0  01:57        0.81
  WS02003073           JUNCTION     0.31     0.51     4.57     0  01:58        0.51
  WS02004138           JUNCTION     0.14     0.14     7.39     0  00:32        0.14
  WS02004139           JUNCTION     0.58     0.74     5.65     0  01:58        0.74
  WS02004401           JUNCTION     0.83     1.80     7.80     0  01:55        1.79
  WS02004402           JUNCTION     0.85     1.74     7.70     0  01:54        1.74
  WS02004403           JUNCTION     0.86     1.67     7.60     0  01:54        1.66
  WS02004404           JUNCTION     0.92     1.68     7.53     0  01:54        1.68
  WS02004405           JUNCTION     0.91     1.64     7.49     0  01:54        1.63
  WS02004406           JUNCTION     0.90     1.53     7.36     0  01:55        1.52
  WS02004407           JUNCTION     0.30     0.88     7.20     0  01:55        0.88
  WS02004409           JUNCTION     0.60     1.36     7.13     0  01:55        1.35
  WS02004410           JUNCTION     0.60     1.27     6.99     0  01:56        1.27
  WS02004411           JUNCTION     0.60     1.19     6.87     0  01:55        1.18
  WS02004412           JUNCTION     0.60     1.09     6.73     0  01:55        1.09
  WS02004413           JUNCTION     0.75     1.14     6.61     0  01:55        1.14
  WS02006109           JUNCTION     1.06     2.64     9.26     0  01:48        2.64
  WS02006110           JUNCTION     0.99     2.37     8.95     0  01:54        2.36
  WS02006111           JUNCTION     0.46     1.67     8.38     0  01:55        1.67
  WS02006112           JUNCTION     1.06     2.68     8.56     0  00:00        2.29
  WS02006113           JUNCTION     0.55     1.78     8.67     0  01:54        1.78
  WS02006115           JUNCTION     0.76     1.88     8.02     0  01:55        1.88
  WS02006116           JUNCTION     0.82     1.88     7.92     0  01:55        1.88
  WS02006228           JUNCTION     1.12     3.02     9.67     0  01:51        3.01
  WS02006229           JUNCTION     1.12     3.22     9.91     0  01:51        3.19
  WS02006230           JUNCTION     1.06     2.65     9.39     0  01:34        2.65
  WS02006231           JUNCTION     0.77     2.19     9.31     0  02:00        2.19
  WS02006232           JUNCTION     0.88     2.18     9.22     0  01:45        2.18
  WS02006234           JUNCTION     0.76     1.96     9.12     0  01:44        1.96
  WS02006235           JUNCTION     0.77     1.96     9.12     0  02:30        1.92
  WS02006238           JUNCTION     0.80     1.97     9.11     0  02:30        1.93
  WS02006239           JUNCTION     0.74     2.03     9.24     0  01:34        1.78
  WS02006240           JUNCTION     0.68     2.10     9.39     0  01:34        1.62
  WS02006242           JUNCTION     0.72     1.55     8.82     0  01:34        1.55
  WS02006243           JUNCTION     0.60     1.48     8.90     0  01:34        1.36
  WS02006245           JUNCTION     0.58     1.56     9.04     0  01:34        1.27
  WS02006247           JUNCTION     0.59     1.38     8.88     0  01:34        1.23
  WS02006248           JUNCTION     0.52     1.10     8.69     0  01:34        1.10
  WS02006249           JUNCTION     0.55     1.09     8.69     0  01:34        1.09
  WS02006251           JUNCTION     0.64     2.19     9.86     0  01:51        2.08
  WS02006252           JUNCTION     0.45     1.50     9.74     0  01:30        1.50
  WS02006253           JUNCTION     0.71     3.04    10.68     0  01:51        2.75
  WS02006256           JUNCTION     1.06     2.35     9.28     0  00:25        2.35
  WS02006280           JUNCTION     0.30     1.74    10.01     0  01:51        1.71
  WS02006284           JUNCTION     0.56     1.94    10.34     0  01:51        1.91
  WS02006287           JUNCTION     0.29     1.75    10.70     0  01:51        1.69
  WSF200               JUNCTION     0.25     0.51     5.75     0  01:55        0.51
  YS02001580           JUNCTION     0.09     1.05     9.59     0  01:48        0.77
  YS02001583           JUNCTION     0.12     1.02     9.52     0  01:48        0.82
  YS02001586           JUNCTION     0.20     1.13     9.30     0  01:48        1.13
  YS02001590           JUNCTION     0.30     1.40     9.26     0  01:48        1.37
  YS02001593           JUNCTION     0.23     1.34     9.21     0  01:48        1.28
  YS02001596           JUNCTION     0.31     1.69     9.11     0  01:48        1.65
  YS02001600           JUNCTION     0.38     1.87     9.00     0  01:48        1.86
  YS02001601           JUNCTION     0.58     2.06     8.90     0  01:47        2.06
  YS02001602           JUNCTION     0.49     1.87     8.77     0  01:47        1.87
  YS02001605           JUNCTION     0.45     1.78     8.68     0  01:48        1.77
  YS02001607           JUNCTION     0.44     1.65     8.49     0  01:52        1.64
  YS02001610           JUNCTION     0.48     1.68     8.48     0  01:48        1.68
  YS02001613           JUNCTION     0.44     1.68     8.52     0  01:48        1.65
  YS02001616           JUNCTION     0.37     1.61     8.52     0  01:48        1.59
  YS02001619           JUNCTION     0.35     1.61     8.54     0  01:48        1.57
  YS02001622           JUNCTION     0.34     1.59     8.49     0  01:48        1.55
  YS02001625           JUNCTION     0.58     1.78     8.38     0  01:48        1.78
  YS02001629           JUNCTION     0.47     1.85     8.40     0  01:48        1.85
  YS02001633           JUNCTION     0.54     2.00     8.46     0  01:53        1.99
  YS02001641           JUNCTION     0.52     1.95     8.39     0  01:53        1.95
  YS02001644           JUNCTION     0.51     1.92     8.35     0  01:53        1.92
  YS02001647           JUNCTION     0.31     1.72     8.33     0  01:53        1.68
  YS02001649           JUNCTION     0.42     1.88     8.27     0  01:54        1.85
  YS02001652           JUNCTION     0.29     1.75     8.35     0  01:53        1.67
  YS02001655           JUNCTION     0.18     1.67     8.52     0  01:53        1.45
  YS02001658           JUNCTION     0.10     1.60     8.74     0  01:53        1.19
  YS02001661           JUNCTION     0.13     0.97     8.37     0  01:54        0.96
  YS02001664           JUNCTION     0.05     0.41     8.34     0  01:54        0.30
  YS02001745           JUNCTION     0.05     0.67     8.19     0  01:54        0.59
  YS02001748           JUNCTION     0.09     1.41     8.49     0  01:53        1.09
  YS02001751           JUNCTION     0.15     1.43     8.31     0  01:54        1.28
  YS02001754           JUNCTION     0.26     1.62     8.22     0  01:54        1.52
  YS02001757           JUNCTION     0.48     1.90     8.16     0  01:54        1.84
  YS02001759           JUNCTION     0.41     1.86     8.22     0  01:54        1.82
  YS02001762           JUNCTION     0.39     1.86     8.26     0  01:54        1.81
  YS02001765           JUNCTION     0.36     1.84     8.29     0  01:54        1.79
  YS02001767           JUNCTION     0.35     1.84     8.32     0  01:54        1.78
  YS02001770           JUNCTION     0.35     1.90     8.39     0  01:54        1.84
  YS02001774           JUNCTION     0.41     1.96     8.38     0  01:54        1.90
  YS02001779           JUNCTION     0.22     1.68     8.37     0  01:52        1.64
  YS02001783           JUNCTION     0.24     1.50     7.64     0  01:49        1.28
  YS02001784           JUNCTION     0.26     1.49     7.56     0  01:48        1.25
  YS02001786           JUNCTION     0.22     1.64     7.67     0  01:48        1.18
  YS02001788           JUNCTION     0.16     1.49     7.46     0  01:48        1.10
  YS02001790           JUNCTION     0.19     1.74     7.39     0  01:48        1.29
  YS02001791           JUNCTION     0.12     1.58     7.05     0  01:47        1.29
  YS02001793           JUNCTION     0.08     1.91     6.75     0  01:48        1.82
  YS02001882           JUNCTION     0.30     1.69     8.41     0  01:49        1.62
  YS02001884           JUNCTION     0.39     1.78     8.39     0  01:49        1.73
  YS02001887           JUNCTION     0.47     1.83     8.37     0  01:49        1.80
  YS02001890           JUNCTION     0.50     1.81     8.32     0  01:49        1.81
  YS02001895           JUNCTION     0.27     1.57     8.32     0  01:50        1.56
  YS02001898           JUNCTION     0.28     1.58     8.32     0  01:50        1.56
  YS02001901           JUNCTION     0.39     1.69     8.30     0  01:50        1.67
  YS02001904           JUNCTION     0.37     1.65     8.28     0  01:50        1.63
  YS02001907           JUNCTION     0.68     1.96     8.25     0  01:50        1.96
  YS02001910           JUNCTION     0.48     1.99     8.50     0  01:51        1.82
  YS02001915           JUNCTION     0.30     1.94     8.65     0  01:51        1.67
  YS02001918           JUNCTION     0.16     1.81     8.88     0  01:51        1.35
  YS02001920           JUNCTION     0.24     2.12     9.12     0  01:51        1.42
  YS02001923           JUNCTION     0.12     2.03     9.29     0  01:51        1.18
  YS02001926           JUNCTION     0.16     1.90     9.35     0  01:51        1.01
  YS02001929           JUNCTION     0.09     1.78     9.47     0  01:51        0.78
  YS02006553           JUNCTION     0.69     1.97     8.26     0  01:53        1.96
  YS02006556           JUNCTION     0.66     1.95     8.26     0  01:50        1.93
  YS02006558           JUNCTION     0.70     1.98     8.25     0  01:54        1.97
  YS02006561           JUNCTION     0.15     1.14     7.80     0  01:49        0.94
  YS02163301           JUNCTION     0.49     1.91     8.43     0  01:53        1.90
  YS02163601           JUNCTION     0.58     2.03     8.43     0  01:53        2.01
  YS02164001           JUNCTION     0.51     1.95     8.41     0  01:53        1.93
  YSB1154              JUNCTION     0.43     1.87    10.93     0  01:54        1.87
  YSB1171              JUNCTION     0.58     1.95    10.85     0  01:51        1.95
  YSB1174              JUNCTION     0.39     1.79    10.90     0  01:51        1.77
  YSB6556              JUNCTION     0.33     1.73    10.89     0  01:51        1.72
  CC-1                 OUTFALL      0.00     0.00     0.00     0  00:00        0.00
  CC-2                 OUTFALL      0.00     0.00     0.00     0  00:00        0.00
  JK-1                 OUTFALL      0.00     0.00     0.00     0  00:00        0.00
  JK-2                 OUTFALL      0.00     0.00     0.00     0  00:00        0.00
  WSC                  OUTFALL      0.31     0.51     1.18     0  01:58        0.51
  CC-storage           STORAGE      0.79     1.62     7.12     0  03:00        1.61
  JK-storage           STORAGE      0.38     5.80     6.60     0  01:48        5.80
  XR-storage           STORAGE      7.83     8.66     6.66     0  06:00        8.66
  
  
  *******************
  Node Inflow Summary
  *******************
  
  -------------------------------------------------------------------------------------------------
                                  Maximum  Maximum                  Lateral       Total        Flow
                                  Lateral    Total  Time of Max      Inflow      Inflow     Balance
                                   Inflow   Inflow   Occurrence      Volume      Volume       Error
  Node                 Type           LPS      LPS  days hr:min    10^6 ltr    10^6 ltr     Percent
  -------------------------------------------------------------------------------------------------
  HS02004478           JUNCTION      0.00  2268.85     0  01:55           0        8.59      -0.010
  HS02004479           JUNCTION      0.00   446.80     0  01:51           0        0.86       0.124
  HS02004480           JUNCTION      0.00  2094.17     0  01:49           0        6.67       0.037
  HS02004770           JUNCTION   1158.25  1158.25     0  01:55        2.39        2.65       0.124
  HS02004777           JUNCTION      0.03   757.92     0  01:48    0.000648        1.99       0.272
  HS02004785           JUNCTION      0.15   768.86     0  01:48     0.00324        1.99       0.043
  HS02004788           JUNCTION    423.61   894.26     0  01:48       0.918        2.91      -0.001
  HS02004792           JUNCTION   1393.22  2137.03     0  01:55        3.09        5.99       0.013
  HS02004799           JUNCTION    275.86  1735.13     0  01:49       0.522        5.84       0.051
  HS02004802           JUNCTION      0.00   910.17     0  01:55           0        1.95       0.206
  HS02004807           JUNCTION    344.41   909.19     0  01:55        0.64           2       0.208
  HS02004817           JUNCTION      0.60   567.52     0  01:55       0.013        1.43       1.186
  HS02004824           JUNCTION    440.58   653.81     0  01:48        1.13        1.68       0.031
  HS02004830           JUNCTION      0.15   666.85     0  01:48     0.00324       0.827       0.110
  HS02004837           JUNCTION    319.01   846.02     0  01:49       0.744        1.23       0.063
  HS02004842           JUNCTION      0.00   826.36     0  01:49           0       0.901       1.470
  HS02004848           JUNCTION    392.35  1084.83     0  01:51        1.09        1.82      -0.016
  HS02004852           JUNCTION      0.00  1036.88     0  01:50           0        1.67       0.007
  HS02004856           JUNCTION    140.11  1069.61     0  01:50       0.264        1.93       0.071
  HS02004862           JUNCTION    183.94  1207.74     0  01:50       0.462        2.39      -0.001
  HS02004870           JUNCTION    187.29  1269.66     0  01:50       0.351        2.74       0.005
  HS02004876           JUNCTION    183.42  1310.18     0  01:51       0.363         3.1       0.033
  HS02004881           JUNCTION    101.47  1392.03     0  01:51       0.185        3.29      -0.001
  HS02004901           JUNCTION    281.50   526.24     0  01:55       0.536       0.827       0.241
  WS02001211           JUNCTION      7.35   210.66     0  01:45       0.159        4.02       0.830
  WS02001212           JUNCTION      0.00   207.06     0  03:11           0        3.98       0.393
  WS02001213           JUNCTION      0.00   210.86     0  03:11           0        3.97       0.464
  WS02003059           JUNCTION      0.00   215.94     0  03:10           0        3.96       0.832
  WS02003060           JUNCTION     16.53  1481.03     0  01:56       0.357        13.5       0.123
  WS02003066           JUNCTION      0.00  1276.43     0  01:55           0        9.21       0.024
  WS02003067           JUNCTION      0.00  1276.40     0  01:55           0        9.21       0.056
  WS02003069           JUNCTION      0.32  1481.35     0  01:57     0.00691        13.5       0.130
  WS02003072           JUNCTION      0.00  1481.16     0  01:57           0        13.4       0.174
  WS02003073           JUNCTION      1.82  1483.04     0  01:57      0.0393        13.5       0.186
  WS02004138           JUNCTION      0.00   190.00     0  00:28           0        3.88       0.085
  WS02004139           JUNCTION      0.32   190.32     0  00:32     0.00693        3.89       0.689
  WS02004401           JUNCTION      0.00  1277.97     0  01:55           0        9.34       0.136
  WS02004402           JUNCTION      0.00  1278.14     0  01:55           0        9.33       0.132
  WS02004403           JUNCTION      0.00  1277.83     0  01:55           0        9.32       0.125
  WS02004404           JUNCTION      0.16  1278.57     0  01:55      0.0035        9.31       0.102
  WS02004405           JUNCTION      0.04  1279.18     0  01:55    0.000823         9.3       0.148
  WS02004406           JUNCTION      0.00  1278.78     0  01:55           0        9.29       0.250
  WS02004407           JUNCTION      0.00  1278.49     0  01:55           0        9.26       0.025
  WS02004409           JUNCTION      0.00  1276.44     0  01:55           0        9.26       0.055
  WS02004410           JUNCTION      0.00  1276.51     0  01:55           0        9.25       0.075
  WS02004411           JUNCTION      0.00  1276.32     0  01:55           0        9.25       0.089
  WS02004412           JUNCTION      0.00  1276.15     0  01:55           0        9.24       0.111
  WS02004413           JUNCTION      0.00  1276.18     0  01:55           0        9.23       0.182
  WS02006109           JUNCTION      1.23  1308.01     0  00:00      0.0266        9.08       0.066
  WS02006110           JUNCTION      0.00  1119.35     0  02:11           0        8.86      -0.386
  WS02006111           JUNCTION      0.00  1176.04     0  00:00           0        8.89      -0.425
  WS02006112           JUNCTION    229.06  2307.30     0  00:00        0.44        9.36       0.013
  WS02006113           JUNCTION      0.00  1119.48     0  02:11           0        8.85      -0.500
  WS02006115           JUNCTION      0.00  2152.75     0  00:00           0        9.35       0.062
  WS02006116           JUNCTION      0.00  1277.95     0  01:55           0        9.34       0.002
  WS02006228           JUNCTION      0.00  1270.64     0  01:55           0        9.03       0.032
  WS02006229           JUNCTION      0.00  2270.74     0  01:55           0        11.3       0.101
  WS02006230           JUNCTION     10.28  1009.67     0  01:55       0.222        5.03       0.042
  WS02006231           JUNCTION      0.00   453.24     0  01:53           0        3.95       0.033
  WS02006232           JUNCTION      0.00   453.40     0  02:03           0        3.94       0.206
  WS02006234           JUNCTION      0.00   453.09     0  01:55           0        3.93      -0.048
  WS02006235           JUNCTION      0.00   415.02     0  02:23           0        3.81       0.138
  WS02006238           JUNCTION      0.00   415.56     0  02:22           0        3.53      -0.345
  WS02006239           JUNCTION      0.00   414.83     0  02:22           0        3.51      -0.337
  WS02006240           JUNCTION      0.00   415.45     0  01:34           0        3.51      -0.027
  WS02006242           JUNCTION      0.00   433.05     0  01:33           0        3.51       0.039
  WS02006243           JUNCTION      0.00   462.83     0  01:33           0        3.15      -0.383
  WS02006245           JUNCTION      0.00   487.93     0  01:33           0        3.17       0.572
  WS02006247           JUNCTION      0.00   491.06     0  01:33           0        3.17       0.019
  WS02006248           JUNCTION      0.00   508.44     0  01:32           0        3.42      -0.037
  WS02006249           JUNCTION      0.00  1336.78     0  01:51           0        6.38       0.221
  WS02006251           JUNCTION      0.08  1415.36     0  01:51     0.00166        6.45       0.015
  WS02006252           JUNCTION      0.00   400.00     0  00:20           0        3.21      -0.092
  WS02006253           JUNCTION     25.88  1413.97     0  01:51      0.0448        3.39       0.058
  WS02006256           JUNCTION      0.00   300.00     0  02:20           0       0.496      -0.109
  WS02006280           JUNCTION      0.00  2269.14     0  01:55           0        8.57       0.003
  WS02006284           JUNCTION      0.10  2269.75     0  01:55     0.00207        8.57       0.002
  WS02006287           JUNCTION      0.00  2269.79     0  01:55           0        8.57       0.011
  WSF200               JUNCTION      0.00  1276.60     0  01:55           0         9.2       0.015
  YS02001580           JUNCTION      0.00   118.03     0  01:47           0     0.00427      -2.495
  YS02001583           JUNCTION      0.00   197.81     0  01:48           0      0.0151      -5.331
  YS02001586           JUNCTION    508.35   508.38     0  02:00        1.47        1.48       0.111
  YS02001590           JUNCTION      0.00   318.06     0  02:10           0         1.3      -0.020
  YS02001593           JUNCTION      0.00   317.96     0  01:54           0         1.3       0.015
  YS02001596           JUNCTION      0.00   318.03     0  02:10           0         1.3       0.001
  YS02001600           JUNCTION      0.00   318.00     0  02:09           0         1.3       0.008
  YS02001601           JUNCTION    928.25  1245.70     0  01:55        2.05        3.35       0.039
  YS02001602           JUNCTION      0.00   530.18     0  01:47           0         2.3       0.033
  YS02001605           JUNCTION      0.00   529.59     0  01:47           0        2.21       0.042
  YS02001607           JUNCTION      0.00   528.84     0  01:47           0        2.21       0.119
  YS02001610           JUNCTION      0.00   531.21     0  01:47           0        2.22       0.126
  YS02001613           JUNCTION      0.00   534.01     0  01:47           0        1.89       0.117
  YS02001616           JUNCTION      0.00   538.71     0  01:47           0        1.89       0.044
  YS02001619           JUNCTION    884.90   927.87     0  01:50        2.35        4.22       0.009
  YS02001622           JUNCTION      0.00   928.59     0  01:50           0         4.2       0.009
  YS02001625           JUNCTION      0.00   973.24     0  01:56           0        4.21       0.295
  YS02001629           JUNCTION      0.00   927.40     0  01:50           0        3.71      -0.011
  YS02001633           JUNCTION    695.15  1393.23     0  01:50        1.49        5.18       0.077
  YS02001641           JUNCTION      0.00  1386.38     0  01:50           0        5.17       0.063
  YS02001644           JUNCTION    622.37  1826.79     0  01:51        1.29        6.45       0.058
  YS02001647           JUNCTION      0.00  1829.87     0  01:51           0        6.42       0.004
  YS02001649           JUNCTION      0.00  2099.14     0  01:51           0        7.61       0.006
  YS02001652           JUNCTION      0.00   668.00     0  01:55           0        1.18      -0.097
  YS02001655           JUNCTION      0.15   667.14     0  01:55     0.00332        1.18       0.065
  YS02001658           JUNCTION      0.00   666.51     0  01:55           0        1.17      -0.073
  YS02001661           JUNCTION      0.00   739.74     0  01:54           0        1.17       0.020
  YS02001664           JUNCTION    603.15   603.15     0  01:55        1.17        1.17      -0.003
  YS02001745           JUNCTION    389.60   389.60     0  01:55       0.716       0.716       0.225
  YS02001748           JUNCTION      0.04   561.62     0  01:54    0.000972       0.715      -0.358
  YS02001751           JUNCTION      0.01   448.72     0  01:58    0.000238       0.726       0.118
  YS02001754           JUNCTION      0.26   442.80     0  01:55     0.00562        0.76      -0.185
  YS02001757           JUNCTION      0.00  3425.23     0  01:55           0        10.9       0.022
  YS02001759           JUNCTION    539.19  1303.48     0  01:54       0.987        2.56       0.002
  YS02001762           JUNCTION      0.00   765.78     0  01:54           0        1.57       0.011
  YS02001765           JUNCTION      0.00   766.40     0  01:54           0        1.56       0.010
  YS02001767           JUNCTION      0.54   765.94     0  01:55      0.0116        1.55       0.011
  YS02001770           JUNCTION    767.29   767.32     0  01:55        1.51        1.59       0.008
  YS02001774           JUNCTION      0.00   288.52     0  01:52           0      0.0992       1.294
  YS02001779           JUNCTION      0.01   291.77     0  01:52    0.000108       0.032      -2.676
  YS02001783           JUNCTION      0.00  1156.02     0  01:54           0        3.98       0.006
  YS02001784           JUNCTION      1.06  1157.09     0  01:54      0.0229        4.01       0.010
  YS02001786           JUNCTION      0.06  1156.86     0  01:54     0.00122        4.01       0.016
  YS02001788           JUNCTION      0.07  1156.91     0  01:54     0.00153        4.01       0.007
  YS02001790           JUNCTION      0.15  1195.92     0  01:51     0.00335        4.01      -0.011
  YS02001791           JUNCTION      0.00  1335.49     0  01:51           0        4.01      -0.008
  YS02001793           JUNCTION      0.00  1403.79     0  01:51           0        4.01      -0.001
  YS02001882           JUNCTION      0.00    52.08     0  01:49           0      0.0128       5.743
  YS02001884           JUNCTION      0.00    66.83     0  01:49           0      0.0487       5.589
  YS02001887           JUNCTION    578.23   578.25     0  01:55        1.03        1.07       0.428
  YS02001890           JUNCTION      0.00   578.24     0  01:54           0        1.03       0.519
  YS02001895           JUNCTION      0.00   516.41     0  01:55           0        1.01       0.172
  YS02001898           JUNCTION      0.00   515.93     0  01:55           0        1.01       0.021
  YS02001901           JUNCTION      0.00   516.19     0  01:56           0        1.01       0.338
  YS02001904           JUNCTION      0.00   516.55     0  01:55           0        1.02       0.305
  YS02001907           JUNCTION      0.00  1555.81     0  01:55           0        3.26       0.568
  YS02001910           JUNCTION      0.00  1039.68     0  01:55           0        2.25       0.330
  YS02001915           JUNCTION    675.85  1039.90     0  01:55        1.44         2.3       0.080
  YS02001918           JUNCTION      0.00   522.48     0  01:49           0       0.894      -0.015
  YS02001920           JUNCTION      2.87   438.64     0  01:52       0.062       0.876       0.103
  YS02001923           JUNCTION      0.04   458.95     0  01:50    0.000814       0.796      -0.045
  YS02001926           JUNCTION      0.05   802.36     0  01:51     0.00113       0.773      -0.054
  YS02001929           JUNCTION    324.00   494.73     0  01:50       0.755       0.758      -0.086
  YS02006553           JUNCTION      0.00   792.48     0  02:11           0        2.53       0.479
  YS02006556           JUNCTION      0.00   793.20     0  02:11           0        2.54       0.328
  YS02006558           JUNCTION    783.83  1156.89     0  01:54        1.51        4.02       0.097
  YS02006561           JUNCTION      0.00  1155.84     0  01:54           0        3.98      -0.006
  YS02163301           JUNCTION      0.00   924.69     0  01:50           0         3.7       0.053
  YS02163601           JUNCTION      0.11  1391.56     0  01:50     0.00238        5.16       0.107
  YS02164001           JUNCTION      0.00  1389.22     0  01:50           0        5.16       0.052
  YSB1154              JUNCTION    316.65   316.65     0  01:55       0.624       0.625       0.241
  YSB1171              JUNCTION      0.00   588.19     0  01:55           0        1.11       0.601
  YSB1174              JUNCTION    271.21   271.21     0  01:55       0.475       0.476       0.274
  YSB6556              JUNCTION      0.00   316.57     0  01:55           0       0.626       0.199
  CC-1                 OUTFALL       0.00   683.00     0  00:00           0        7.09       0.000
  CC-2                 OUTFALL       0.00   683.00     0  00:00           0        3.17       0.000
  JK-1                 OUTFALL       0.00  1000.00     0  00:10           0        3.27       0.000
  JK-2                 OUTFALL       0.00  1000.00     0  00:10           0       0.828       0.000
  WSC                  OUTFALL       0.00  1483.35     0  01:58           0        13.4       0.000
  CC-storage           STORAGE       0.00  3424.43     0  01:55           0        13.1      -2.935
  JK-storage           STORAGE       0.00  1592.90     0  01:51           0        4.16     -11.014
  XR-storage           STORAGE     200.00   200.00     0  00:00        4.32        4.92       0.001
  
  
  **********************
  Node Surcharge Summary
  **********************
  
  Surcharging occurs when water rises above the top of the highest conduit.
  ---------------------------------------------------------------------
                                               Max. Height   Min. Depth
                                   Hours       Above Crown    Below Rim
  Node                 Type      Surcharged         Meters       Meters
  ---------------------------------------------------------------------
  HS02004478           JUNCTION        0.46          0.671        0.269
  HS02004479           JUNCTION        0.60          0.921        0.129
  HS02004480           JUNCTION        0.65          0.993        0.107
  HS02004770           JUNCTION        0.55          0.720        0.000
  HS02004777           JUNCTION        0.56          0.780        0.000
  HS02004785           JUNCTION        0.50          0.790        0.000
  HS02004788           JUNCTION        0.48          0.720        0.000
  HS02004792           JUNCTION        0.61          0.900        0.000
  HS02004799           JUNCTION        0.75          1.060        0.000
  HS02004802           JUNCTION        0.65          1.093        0.117
  HS02004807           JUNCTION        0.64          1.220        0.000
  HS02004817           JUNCTION        1.30          1.740        0.000
  HS02004824           JUNCTION        0.48          1.310        0.000
  HS02004830           JUNCTION        0.44          1.330        0.000
  HS02004837           JUNCTION        0.40          1.297        0.043
  HS02004842           JUNCTION        0.56          1.520        0.000
  HS02004848           JUNCTION        0.33          1.370        0.000
  HS02004852           JUNCTION        0.38          1.420        0.000
  HS02004856           JUNCTION        0.33          1.300        0.000
  HS02004862           JUNCTION        0.40          1.300        0.000
  HS02004870           JUNCTION        0.41          1.400        0.000
  HS02004876           JUNCTION        0.47          1.410        0.150
  HS02004881           JUNCTION        0.44          1.141        0.309
  HS02004901           JUNCTION        0.56          0.720        0.000
  WS02004401           JUNCTION        1.51          0.799        0.861
  WS02004402           JUNCTION        1.53          0.745        0.995
  WS02004403           JUNCTION        1.53          0.674        1.356
  WS02004404           JUNCTION        1.64          0.683        2.097
  WS02004405           JUNCTION        1.59          0.636        2.164
  WS02004406           JUNCTION        1.57          0.529        1.921
  WS02004409           JUNCTION        1.01          0.360        2.000
  WS02004410           JUNCTION        0.96          0.272        2.268
  WS02004411           JUNCTION        0.88          0.186        2.344
  WS02004412           JUNCTION        0.78          0.092        2.218
  WS02004413           JUNCTION        1.33          0.137        2.063
  WS02006109           JUNCTION        2.15          1.820        0.000
  WS02006110           JUNCTION        1.78          1.459        0.391
  WS02006111           JUNCTION        1.30          0.864        1.006
  WS02006112           JUNCTION        1.82          1.680        0.000
  WS02006113           JUNCTION        1.32          0.977        0.953
  WS02006115           JUNCTION        1.46          0.875        1.375
  WS02006116           JUNCTION        1.47          0.822        1.468
  WS02006228           JUNCTION        2.10          2.193        0.007
  WS02006229           JUNCTION        0.90          1.036        0.034
  WS02006230           JUNCTION        1.58          1.570        0.000
  WS02006231           JUNCTION        1.60          1.479        0.051
  WS02006232           JUNCTION        2.12          1.480        0.000
  WS02006234           JUNCTION        1.69          1.240        0.000
  WS02006235           JUNCTION        1.88          1.246        0.044
  WS02006238           JUNCTION        1.96          1.246        0.184
  WS02006239           JUNCTION        1.69          1.290        0.000
  WS02006240           JUNCTION        1.67          1.390        0.000
  WS02006242           JUNCTION        1.89          0.820        0.000
  WS02006243           JUNCTION        1.65          0.770        0.000
  WS02006245           JUNCTION        1.62          0.850        0.000
  WS02006247           JUNCTION        1.66          0.672        0.088
  WS02006248           JUNCTION        1.56          0.380        0.000
  WS02006249           JUNCTION        1.62          0.390        0.000
  WS02006251           JUNCTION        1.26          1.159        0.021
  WS02006252           JUNCTION        2.20          1.100        0.000
  WS02006253           JUNCTION        1.26          1.999        0.481
  WS02006256           JUNCTION        5.57          2.050        0.000
  WS02006280           JUNCTION        0.77          0.688        0.092
  WS02006284           JUNCTION        0.68          0.665        0.135
  WS02006287           JUNCTION        0.57          0.748        0.142
  YS02001580           JUNCTION        0.58          0.450        0.000
  YS02001583           JUNCTION        0.59          0.385        0.115
  YS02001586           JUNCTION        0.73          0.510        0.000
  YS02001590           JUNCTION        0.81          0.750        0.000
  YS02001593           JUNCTION        0.81          0.725        0.115
  YS02001596           JUNCTION        0.94          0.960        0.110
  YS02001600           JUNCTION        1.11          1.190        0.000
  YS02001601           JUNCTION        1.50          1.440        0.000
  YS02001602           JUNCTION        1.40          1.270        0.000
  YS02001605           JUNCTION        1.33          1.180        0.000
  YS02001607           JUNCTION        0.78          0.646        0.034
  YS02001610           JUNCTION        0.81          0.680        0.000
  YS02001613           JUNCTION        0.77          0.676        0.024
  YS02001616           JUNCTION        0.72          0.610        0.000
  YS02001619           JUNCTION        0.70          0.610        0.000
  YS02001622           JUNCTION        0.70          0.588        0.032
  YS02001625           JUNCTION        0.93          0.780        0.000
  YS02001629           JUNCTION        0.62          0.470        0.000
  YS02001633           JUNCTION        0.96          0.982        0.078
  YS02001641           JUNCTION        0.89          0.950        0.150
  YS02001644           JUNCTION        0.85          0.920        0.000
  YS02001647           JUNCTION        0.48          0.720        0.180
  YS02001649           JUNCTION        0.71          0.880        0.170
  YS02001652           JUNCTION        0.30          0.722        0.408
  YS02001655           JUNCTION        0.18          0.674        0.526
  YS02001658           JUNCTION        0.05          0.603        0.697
  YS02001748           JUNCTION        0.01          0.329        0.861
  YS02001751           JUNCTION        0.09          0.426        0.774
  YS02001754           JUNCTION        0.19          0.565        0.585
  YS02001757           JUNCTION        0.86          0.895        0.315
  YS02001759           JUNCTION        0.61          0.860        0.350
  YS02001762           JUNCTION        0.50          0.860        0.290
  YS02001765           JUNCTION        0.37          0.835        0.265
  YS02001767           JUNCTION        0.31          0.835        0.195
  YS02001770           JUNCTION        0.27          0.868        0.052
  YS02001774           JUNCTION        0.44          0.960        0.090
  YS02001779           JUNCTION        0.21          0.680        0.000
  YS02001783           JUNCTION        0.54          0.697        0.903
  YS02001784           JUNCTION        0.52          0.691        0.799
  YS02001786           JUNCTION        0.42          0.844        0.586
  YS02001788           JUNCTION        0.04          0.686        0.794
  YS02001790           JUNCTION        0.05          0.941        0.216
  YS02001791           JUNCTION        0.05          0.776        1.144
  YS02001793           JUNCTION        0.07          0.914        1.686
  YS02001882           JUNCTION        0.47          0.691        0.139
  YS02001884           JUNCTION        0.48          0.717        0.153
  YS02001887           JUNCTION        0.52          0.778        0.172
  YS02001890           JUNCTION        0.54          0.760        0.000
  YS02001895           JUNCTION        0.46          0.575        0.175
  YS02001898           JUNCTION        0.46          0.551        0.189
  YS02001901           JUNCTION        0.51          0.686        0.184
  YS02001904           JUNCTION        0.50          0.648        0.202
  YS02001907           JUNCTION        0.75          0.950        0.000
  YS02001910           JUNCTION        0.57          0.992        0.108
  YS02001915           JUNCTION        0.47          0.935        0.065
  YS02001918           JUNCTION        0.38          0.810        0.000
  YS02001920           JUNCTION        0.40          1.116        0.024
  YS02001923           JUNCTION        0.01          0.820        0.000
  YS02001926           JUNCTION        0.02          0.900        0.000
  YS02001929           JUNCTION        0.01          0.780        0.000
  YS02006553           JUNCTION        0.77          0.972        0.218
  YS02006556           JUNCTION        0.66          0.905        0.445
  YS02006558           JUNCTION        0.65          0.882        0.518
  YS02006561           JUNCTION        0.36          0.341        0.809
  YS02163301           JUNCTION        0.93          0.911        0.119
  YS02163601           JUNCTION        1.00          1.031        0.049
  YS02164001           JUNCTION        0.89          0.952        0.148
  YSB1154              JUNCTION        0.89          1.171        0.229
  YSB1171              JUNCTION        0.90          1.100        0.000
  YSB1174              JUNCTION        0.79          1.089        0.161
  YSB6556              JUNCTION        0.72          1.026        0.074
  
  
  *********************
  Node Flooding Summary
  *********************
  
  Flooding refers to all water that overflows a node, whether it ponds or not.
  --------------------------------------------------------------------------
                                                             Total   Maximum
                                 Maximum   Time of Max       Flood    Ponded
                        Hours       Rate    Occurrence      Volume     Depth
  Node                 Flooded       LPS   days hr:min    10^6 ltr    Meters
  --------------------------------------------------------------------------
  HS02004770              0.33    593.05      0  01:55       0.367     0.000
  HS02004777              0.01     77.18      0  01:48       0.001     0.000
  HS02004785              0.01     98.59      0  01:48       0.000     0.000
  HS02004788              0.01    251.72      0  01:48       0.001     0.000
  HS02004792              0.33    994.41      0  01:55       0.672     0.000
  HS02004799              0.14     99.80      0  01:55       0.020     0.000
  HS02004807              0.01     27.81      0  01:51       0.000     0.000
  HS02004817              0.01     11.79      0  01:51       0.000     0.000
  HS02004824              0.01     14.42      0  01:51       0.000     0.000
  HS02004830              0.01     25.27      0  01:51       0.000     0.000
  HS02004842              0.01    168.54      0  01:51       0.002     0.000
  HS02004848              0.01     82.86      0  01:51       0.000     0.000
  HS02004852              0.01    182.83      0  01:51       0.001     0.000
  HS02004856              0.01     89.64      0  01:51       0.001     0.000
  HS02004862              0.01    277.00      0  01:50       0.001     0.000
  HS02004870              0.01    232.93      0  01:50       0.000     0.000
  HS02004901              0.41    526.19      0  01:55       0.565     0.000
  WS02006109              0.38    222.90      0  01:55       0.189     0.000
  WS02006112              0.01   1153.65      0  00:00       0.035     0.000
  WS02006230              0.69    556.81      0  01:55       0.886     0.000
  WS02006232              0.15      0.83      0  01:49       0.000     0.000
  WS02006234              0.75    128.14      0  02:24       0.175     0.000
  WS02006239              0.01     34.59      0  01:34       0.000     0.000
  WS02006240              0.01     40.14      0  01:34       0.000     0.000
  WS02006242              0.83    137.06      0  02:22       0.351     0.000
  WS02006243              0.01     73.02      0  01:34       0.000     0.000
  WS02006245              0.01     72.02      0  01:34       0.000     0.000
  WS02006248              1.16    342.44      0  01:46       1.193     0.000
  WS02006249              1.27   1274.96      0  01:51       3.887     0.000
  WS02006252              0.27    280.16      0  01:51       0.148     0.000
  WS02006256              0.34    294.07      0  02:20       0.172     0.000
  YS02001580              0.01     90.71      0  01:48       0.000     0.000
  YS02001586              0.43    190.89      0  02:00       0.167     0.000
  YS02001590              0.01      3.18      0  01:48       0.000     0.000
  YS02001600              0.01      2.65      0  01:48       0.000     0.000
  YS02001601              0.64    847.72      0  01:55       1.053     0.000
  YS02001602              0.46     61.95      0  01:55       0.090     0.000
  YS02001605              0.01      2.12      0  01:48       0.000     0.000
  YS02001610              0.38    395.22      0  02:00       0.348     0.000
  YS02001616              0.01      8.94      0  01:48       0.000     0.000
  YS02001619              0.01      7.52      0  01:48       0.000     0.000
  YS02001625              0.30    972.24      0  01:56       0.507     0.000
  YS02001629              0.05     88.12      0  01:54       0.009     0.000
  YS02001644              0.04    207.77      0  01:55       0.018     0.000
  YS02001779              0.01    185.01      0  01:52       0.001     0.000
  YS02001890              0.09     65.17      0  01:55       0.011     0.000
  YS02001907              0.33   1167.55      0  01:55       0.724     0.000
  YS02001918              0.01    129.03      0  01:51       0.001     0.000
  YS02001923              0.01     48.17      0  01:51       0.000     0.000
  YS02001926              0.01    443.79      0  01:51       0.001     0.000
  YS02001929              0.01    284.47      0  01:51       0.001     0.000
  YSB1171                 0.22    544.64      0  01:55       0.248     0.000
  JK-storage              0.03    888.30      0  01:49       0.090     0.000
  
  
  **********************
  Storage Volume Summary
  **********************
  
  --------------------------------------------------------------------------------------------------
                         Average     Avg  Evap Exfil       Maximum     Max    Time of Max    Maximum
                          Volume    Pcnt  Pcnt  Pcnt        Volume    Pcnt     Occurrence    Outflow
  Storage Unit           1000 m3    Full  Loss  Loss       1000 m3    Full    days hr:min        LPS
  --------------------------------------------------------------------------------------------------
  CC-storage               2.197      34     0     0         4.503      70       0  03:00    1766.00
  JK-storage               0.019       6     0     0         0.291     100       0  01:48    2300.00
  XR-storage               0.939      65     0     0         1.039      72       0  06:00     190.00
  
  
  ***********************
  Outfall Loading Summary
  ***********************
  
  -----------------------------------------------------------
                         Flow       Avg       Max       Total
                         Freq      Flow      Flow      Volume
  Outfall Node           Pcnt       LPS       LPS    10^6 ltr
  -----------------------------------------------------------
  CC-1                  68.41    562.33    683.00       7.087
  CC-2                  27.80    550.75    683.00       3.174
  JK-1                  64.54    241.99   1000.00       3.266
  JK-2                  25.18    134.56   1000.00       0.828
  WSC                   99.99    663.74   1483.35      13.440
  -----------------------------------------------------------
  System                57.19   2153.37   4166.35      27.795
  
  
  ********************
  Link Flow Summary
  ********************
  
  -----------------------------------------------------------------------------
                                 Maximum  Time of Max   Maximum    Max/    Max/
                                  |Flow|   Occurrence   |Veloc|    Full    Full
  Link                 Type          LPS  days hr:min     m/sec    Flow   Depth
  -----------------------------------------------------------------------------
  1                    CONDUIT   1483.35     0  01:58      3.68    0.52    0.51
  HS02004478WS02006287 CONDUIT   2269.79     0  01:55      2.61    0.64    1.00
  HS02004479HS02004480 CONDUIT    445.31     0  01:51      0.64    0.43    1.00
  HS02004480HS02004478 CONDUIT   2098.57     0  01:49      3.00    8.84    1.00
  HS02004770HS02004777 CONDUIT    757.89     0  01:48      1.08    1.39    1.00
  HS02004777HS02004785 CONDUIT    768.71     0  01:48      1.14    0.95    1.00
  HS02004785HS02004788 CONDUIT    672.16     0  01:48      1.34    5.07    1.00
  HS02004788HS02004792 CONDUIT    831.93     0  02:13      1.44    0.55    1.00
  HS02004792HS02004799 CONDUIT   1570.23     0  01:49      2.24    0.96    1.00
  HS02004799HS02004480 CONDUIT   1733.43     0  01:49      2.48    2.19    1.00
  HS02004802HS02004478 CONDUIT    910.46     0  01:55      1.30    0.80    1.00
  HS02004807HS02004802 CONDUIT    910.17     0  01:55      1.30    1.74    1.00
  HS02004817HS02004807 CONDUIT    568.49     0  01:55      0.81    0.34    1.00
  HS02004817HS02004824 CONDUIT    566.92     0  01:55      0.81    0.26    1.00
  HS02004824HS02004830 CONDUIT    666.70     0  01:48      0.97    0.87    1.00
  HS02004830HS02004837 CONDUIT    655.84     0  01:49      1.02    0.65    1.00
  HS02004837HS02004842 CONDUIT    826.36     0  01:49      1.18    0.49    1.00
  HS02004842HS02004848 CONDUIT    825.94     0  01:49      1.30    0.48    1.00
  HS02004848HS02004852 CONDUIT   1036.88     0  01:50      1.60    1.17    1.00
  HS02004852HS02004856 CONDUIT    969.72     0  01:50      1.46    1.11    1.00
  HS02004856HS02004862 CONDUIT   1083.55     0  01:50      1.69    1.08    1.00
  HS02004862HS02004870 CONDUIT   1136.00     0  01:50      1.82    1.23    1.00
  HS02004870HS02004876 CONDUIT   1170.79     0  01:51      1.67    0.78    1.00
  HS02004876HS02004881 CONDUIT   1311.70     0  01:51      2.16   13.95    1.00
  HS02004881HS02006253 CONDUIT   1392.25     0  01:51      2.31    0.27    1.00
  HS02004901HS02004770 CONDUIT    265.79     0  02:07      0.38    1.00    1.00
  WS02001211WS02001212 CONDUIT    207.06     0  03:11      0.54    0.16    0.69
  WS02001212WS02001213 CONDUIT    210.86     0  03:11      1.04    0.33    0.55
  WS02001213WS02003059 CONDUIT    215.94     0  03:10      0.47    0.36    0.89
  WS02003059WS02003060 CONDUIT    222.73     0  03:10      0.66    0.15    0.81
  WS02003060WS02003069 CONDUIT   1481.03     0  01:57      2.08    0.58    0.60
  WS02003066WSF200     CONDUIT   1276.60     0  01:55      3.29    0.22    0.38
  WS02003067WS02003066 CONDUIT   1276.43     0  01:55      1.98    0.41    0.56
  WS02003069WS02003072 CONDUIT   1481.16     0  01:57      1.88    0.71    0.66
  WS02003072WS02003073 CONDUIT   1481.22     0  01:57      2.04    3.20    0.61
  WS02004138WS02004139 CONDUIT    190.00     0  00:32      2.14    0.04    0.41
  WS02004139WS02001211 CONDUIT    203.31     0  01:45      0.54    0.26    0.60
  WS02004401WS02004402 CONDUIT   1278.14     0  01:55      2.07    1.53    1.00
  WS02004402WS02004403 CONDUIT   1277.83     0  01:55      1.84    1.84    1.00
  WS02004403WS02004404 CONDUIT   1278.41     0  01:55      1.66    0.92    1.00
  WS02004404WS02004405 CONDUIT   1279.14     0  01:55      1.85   12.53    1.00
  WS02004405WS02004406 CONDUIT   1278.78     0  01:55      1.73    2.52    1.00
  WS02004406WS02004407 CONDUIT   1278.49     0  01:55      1.72    0.57    0.94
  WS02004407WS02004409 CONDUIT   1276.44     0  01:55      1.94    0.45    0.94
  WS02004409WS02004410 CONDUIT   1276.51     0  01:55      1.63    1.65    1.00
  WS02004410WS02004411 CONDUIT   1276.32     0  01:55      1.63    1.74    1.00
  WS02004411WS02004412 CONDUIT   1276.15     0  01:55      1.62    1.81    1.00
  WS02004412WS02004413 CONDUIT   1276.18     0  01:55      1.62    0.85    1.00
  WS02004413WS02003067 CONDUIT   1276.40     0  01:55      1.98    0.55    0.76
  WS02006109WS02006110 CONDUIT   1306.78     0  00:00      3.15    2.51    1.00
  WS02006110WS02006113 CONDUIT   1119.48     0  02:11      2.23    1.02    1.00
  WS02006111WS02006112 CONDUIT   2307.30     0  00:00      9.18    1.10    1.00
  WS02006112WS02006115 CONDUIT   2152.75     0  00:00      2.85    1.27    1.00
  WS02006113WS02006111 CONDUIT   1176.04     0  00:00      2.72    1.41    1.00
  WS02006115WS02006116 CONDUIT   1277.95     0  01:55      1.81    1.64    1.00
  WS02006116WS02004401 CONDUIT   1277.97     0  01:55      2.21    1.76    1.00
  WS02006228WS02006109 CONDUIT   1270.65     0  01:55      2.53    5.55    1.00
  WS02006229WS02006228 CONDUIT   1270.64     0  01:55      2.53    4.21    1.00
  WS02006230WS02006229 CONDUIT    999.40     0  01:55      2.60   22.24    1.00
  WS02006231WS02006230 CONDUIT    453.24     0  01:53      1.36    6.87    1.00
  WS02006232WS02006231 CONDUIT    453.40     0  02:03      1.18    0.95    1.00
  WS02006234WS02006232 CONDUIT    453.09     0  01:55      1.37    0.92    1.00
  WS02006235WS02006234 CONDUIT    407.61     0  05:10      1.29    4.30    1.00
  WS02006238WS02006235 CONDUIT    415.56     0  02:22      1.63    0.93    1.00
  WS02006239WS02006238 CONDUIT    414.83     0  02:22      1.25    1.33    1.00
  WS02006240WS02006239 CONDUIT    415.02     0  02:23      1.32    1.31    1.00
  WS02006242WS02006240 CONDUIT    415.45     0  01:34      1.16    1.65    1.00
  WS02006243WS02006242 CONDUIT    433.05     0  01:33      1.40    0.93    1.00
  WS02006245WS02006243 CONDUIT    462.83     0  01:33      1.46    1.37    1.00
  WS02006247WS02006245 CONDUIT    487.93     0  01:33      1.48    3.87    1.00
  WS02006248WS02006247 CONDUIT    491.06     0  01:33      1.40    1.07    1.00
  WS02006249WS02006248 CONDUIT    508.44     0  01:32      1.44    2.79    1.00
  WS02006251WS02006249 CONDUIT   1336.78     0  01:51      3.47    3.85    1.00
  WS02006252WS02006251 CONDUIT    407.80     0  01:35     11.02    1.50    1.00
  WS02006253WS02006251 CONDUIT   1415.28     0  01:51      3.68    4.24    1.00
  WS02006256WS02006235 CONDUIT    264.19     0  03:40      3.74    2.80    1.00
  WS02006280WS02006229 CONDUIT   2270.74     0  01:55      4.12    0.48    1.00
  WS02006284WS02006280 CONDUIT   2269.14     0  01:55      3.02    0.95    1.00
  WS02006287WS02006284 CONDUIT   2269.66     0  01:55      2.89    1.05    1.00
  WSF200WS02003060     CONDUIT   1277.10     0  01:56      2.45    0.28    0.50
  YS02001580YS02001583 CONDUIT    118.03     0  01:47      0.75    0.46    1.00
  YS02001583YS02001586 CONDUIT    175.30     0  01:48      0.74    0.27    1.00
  YS02001586YS02001590 CONDUIT    318.06     0  02:10      1.24    0.56    1.00
  YS02001590YS02001593 CONDUIT    317.96     0  01:54      1.12    2.00    1.00
  YS02001593YS02001596 CONDUIT    318.03     0  02:10      1.73    0.50    1.00
  YS02001596YS02001600 CONDUIT    318.00     0  02:09      1.21    0.62    1.00
  YS02001600YS02001601 CONDUIT    317.87     0  02:02      1.12    0.55    1.00
  YS02001601YS02001602 CONDUIT    530.18     0  01:47      1.88    1.92    1.00
  YS02001602YS02001605 CONDUIT    529.59     0  01:47      1.87   11.21    1.00
  YS02001605YS02001607 CONDUIT    528.84     0  01:47      1.87    2.90    1.00
  YS02001607YS02001610 CONDUIT    531.21     0  01:47      0.68    0.51    1.00
  YS02001610YS02001613 CONDUIT    534.01     0  01:47      0.68    0.62    1.00
  YS02001613YS02001616 CONDUIT    538.71     0  01:47      0.69    0.46    1.00
  YS02001616YS02001619 CONDUIT    518.30     0  01:47      0.68    0.90    1.00
  YS02001619YS02001622 CONDUIT    928.59     0  01:50      1.20    1.37    1.00
  YS02001622YS02001625 CONDUIT    928.11     0  01:50      1.18    0.50    1.00
  YS02001625YS02001629 CONDUIT    927.40     0  01:50      1.18    0.44    1.00
  YS02001629YS02163301 CONDUIT    924.69     0  01:50      1.18    1.14    1.00
  YS02001633YS02163601 CONDUIT   1391.45     0  01:50      1.77    1.46    1.00
  YS02001641YS02001644 CONDUIT   1387.33     0  01:50      1.77    4.48    1.00
  YS02001644YS02001647 CONDUIT   1829.87     0  01:51      2.33    1.07    1.00
  YS02001647YS02001649 CONDUIT   1843.58     0  01:51      2.36    0.97    1.00
  YS02001649YS02001757 CONDUIT   2105.00     0  01:51      2.69    1.28    1.00
  YS02001652YS02001649 CONDUIT    668.59     0  01:55      0.86    0.33    1.00
  YS02001655YS02001652 CONDUIT    668.00     0  01:55      1.36    0.32    1.00
  YS02001658YS02001655 CONDUIT    666.99     0  01:55      1.94    0.28    1.00
  YS02001661YS02001658 CONDUIT    666.51     0  01:55      2.35    0.26    0.95
  YS02001664YS02001661 CONDUIT    739.74     0  01:54      2.34    0.23    0.66
  YS02001745YS02001748 CONDUIT    561.58     0  01:54      2.23    0.22    0.79
  YS02001748YS02001751 CONDUIT    448.71     0  01:58      1.72    0.23    1.00
  YS02001751YS02001754 CONDUIT    442.54     0  01:55      1.42    0.21    1.00
  YS02001754YS02001757 CONDUIT    443.48     0  01:55      0.56    0.18    1.00
  YS02001757CaochengTiaoxuchi CONDUIT   3424.43     0  01:55      5.99    1.48    1.00
  YS02001759YS02001757 CONDUIT   1303.63     0  01:55      1.66    0.93    1.00
  YS02001762YS02001759 CONDUIT    766.39     0  01:55      0.98    0.88    1.00
  YS02001765YS02001762 CONDUIT    765.78     0  01:54      0.98    0.72    1.00
  YS02001767YS02001765 CONDUIT    766.40     0  01:54      0.98    0.96    1.00
  YS02001770YS02001767 CONDUIT    765.41     0  01:55      0.97    3.03    1.00
  YS02001774YS02001770 CONDUIT    288.52     0  01:52      0.37    0.18    1.00
  YS02001779YS02001774 CONDUIT    291.77     0  01:52      0.38    0.15    1.00
  YS02001783YS02001784 CONDUIT   1156.03     0  01:54      2.30    1.59    1.00
  YS02001784YS02001785 CONDUIT   1156.80     0  01:54      2.30    2.69    1.00
  YS02001786YS02001788 CONDUIT   1156.84     0  01:54      2.47    2.23    1.00
  YS02001788YS02001790 CONDUIT   1195.76     0  01:51      2.71    0.88    1.00
  YS02001790YS02001791 CONDUIT   1335.49     0  01:51      3.42    1.45    1.00
  YS02001791YS02001793 CONDUIT   1403.79     0  01:51      6.78    0.60    1.00
  YS02001793JiankangQianchi CONDUIT   1592.90     0  01:51     24.88    0.13    1.00
  YS02001882YS02001884 CONDUIT     52.08     0  01:49      0.14    0.06    1.00
  YS02001884YS02001887 CONDUIT     66.83     0  01:49      0.10    0.09    1.00
  YS02001887YS02001890 CONDUIT    578.24     0  01:54      0.74    0.99    1.00
  YS02001890YS02001895 CONDUIT    516.41     0  01:55      0.66    0.24    1.00
  YS02001895YS02001898 CONDUIT    515.93     0  01:55      0.66    0.90    1.00
  YS02001898YS02001901 CONDUIT    516.19     0  01:56      0.66    0.33    1.00
  YS02001901YS02001904 CONDUIT    516.55     0  01:55      0.66    0.80    1.00
  YS02001904YS02001907 CONDUIT    515.91     0  01:55      0.66    0.18    1.00
  YS02001907YS02006553 CONDUIT    792.48     0  02:11      0.88    0.93    1.00
  YS02001910YS02001907 CONDUIT   1040.41     0  01:55      1.32    0.59    1.00
  YS02001915YS02001910 CONDUIT   1039.68     0  01:55      1.32    0.52    1.00
  YS02001918YS02001915 CONDUIT    522.48     0  01:49      0.69    0.29    1.00
  YS02001920YS02001918 CONDUIT    440.30     0  01:52      0.64    0.43    1.00
  YS02001923YS02001920 CONDUIT    435.77     0  01:52      0.70    0.20    1.00
  YS02001926YS02001923 CONDUIT    433.15     0  01:51      0.95    0.62    1.00
  YS02001929YS02001926 CONDUIT    404.66     0  01:51      1.10    0.19    1.00
  YS02006553YS02006556 CONDUIT    793.20     0  02:11      1.01    0.68    1.00
  YS02006556YS02006558 CONDUIT    792.94     0  02:11      1.01    0.63    1.00
  YS02006558YS02006561 CONDUIT   1155.84     0  01:54      4.09    2.55    1.00
  YS02006561YS02001783 CONDUIT   1156.02     0  01:54      2.30    0.60    1.00
  YS02163301YS02001633 CONDUIT    925.51     0  01:50      1.18    0.87    1.00
  YS02163601YS02164001 CONDUIT   1389.22     0  01:50      1.77    1.23    1.00
  YS02164001YS02001641 CONDUIT   1386.38     0  01:50      1.77    1.89    1.00
  YSB1154YSB6556       CONDUIT    316.57     0  01:55      0.82    0.57    1.00
  YSB1171HS02004479    CONDUIT    446.80     0  01:51      0.89    0.30    1.00
  YSB1174YSB1171       CONDUIT    271.21     0  01:55      0.70    0.42    1.00
  YSB6556YSB1171       CONDUIT    317.11     0  01:55      0.82    0.33    1.00
  CC-R1                PUMP       683.00     0  00:00              1.00
  CC-R2                PUMP       683.00     0  00:00              1.00
  CC-S1                PUMP       200.00     0  00:20              1.00
  CC-S2                PUMP       200.00     0  00:20              1.00
  JK-R1                PUMP      1000.00     0  00:10              1.00
  JK-R2                PUMP      1000.00     0  00:10              1.00
  JK-S                 PUMP       300.00     0  02:20              1.00
  XR-1                 PUMP        95.00     0  00:10              1.00
  XR-2                 PUMP        95.00     0  00:28              1.00
  XR-3                 PUMP         0.00     0  00:00              0.00
  XR-4                 PUMP         0.00     0  00:00              0.00
  
  
  ***************************
  Flow Classification Summary
  ***************************
  
  -------------------------------------------------------------------------------------
                      Adjusted    ---------- Fraction of Time in Flow Class ---------- 
                       /Actual         Up    Down  Sub   Sup   Up    Down  Norm  Inlet 
  Conduit               Length    Dry  Dry   Dry   Crit  Crit  Crit  Crit  Ltd   Ctrl  
  -------------------------------------------------------------------------------------
  1                       1.00   0.00  0.00  0.00  0.00  1.00  0.00  0.00  0.58  0.00
  HS02004478WS02006287    1.00   0.13  0.00  0.00  0.61  0.25  0.00  0.00  0.46  0.00
  HS02004479HS02004480    1.00   0.01  0.00  0.00  0.99  0.00  0.00  0.00  0.15  0.00
  HS02004480HS02004478    1.00   0.11  0.00  0.00  0.57  0.00  0.00  0.32  0.00  0.00
  HS02004770HS02004777    1.00   0.00  0.11  0.00  0.89  0.00  0.00  0.00  0.03  0.00
  HS02004777HS02004785    1.00   0.00  0.00  0.00  1.00  0.00  0.00  0.00  0.16  0.00
  HS02004785HS02004788    1.00   0.00  0.00  0.00  1.00  0.00  0.00  0.00  0.00  0.00
  HS02004788HS02004792    1.00   0.00  0.00  0.00  1.00  0.00  0.00  0.00  0.87  0.00
  HS02004792HS02004799    1.00   0.00  0.00  0.00  1.00  0.00  0.00  0.00  0.81  0.00
  HS02004799HS02004480    1.00   0.00  0.01  0.00  0.87  0.00  0.12  0.00  0.00  0.00
  HS02004802HS02004478    1.00   0.11  0.00  0.00  0.89  0.00  0.00  0.00  0.03  0.00
  HS02004807HS02004802    1.00   0.11  0.00  0.00  0.88  0.00  0.00  0.01  0.00  0.00
  HS02004817HS02004807    1.00   0.00  0.11  0.00  0.89  0.00  0.00  0.00  0.01  0.00
  HS02004817HS02004824    1.00   0.00  0.00  0.00  1.00  0.00  0.00  0.00  0.74  0.00
  HS02004824HS02004830    1.00   0.00  0.00  0.00  1.00  0.00  0.00  0.00  0.01  0.00
  HS02004830HS02004837    1.00   0.00  0.00  0.00  1.00  0.00  0.00  0.00  0.84  0.00
  HS02004837HS02004842    1.00   0.00  0.00  0.00  1.00  0.00  0.00  0.00  0.14  0.00
  HS02004842HS02004848    1.00   0.00  0.11  0.00  0.89  0.00  0.00  0.00  0.41  0.00
  HS02004848HS02004852    1.00   0.11  0.00  0.00  0.89  0.00  0.00  0.00  0.61  0.00
  HS02004852HS02004856    1.00   0.11  0.01  0.00  0.89  0.00  0.00  0.00  0.55  0.00
  HS02004856HS02004862    1.00   0.00  0.14  0.00  0.86  0.00  0.00  0.00  0.66  0.00
  HS02004862HS02004870    1.00   0.00  0.00  0.00  1.00  0.00  0.00  0.00  0.04  0.00
  HS02004870HS02004876    1.00   0.00  0.00  0.00  1.00  0.00  0.00  0.00  0.81  0.00
  HS02004876HS02004881    1.00   0.00  0.00  0.00  0.78  0.22  0.00  0.00  0.00  0.00
  HS02004881HS02006253    1.00   0.01  0.00  0.00  0.67  0.02  0.00  0.30  0.42  0.00
  HS02004901HS02004770    1.00   0.11  0.00  0.00  0.89  0.00  0.00  0.00  0.00  0.00
  WS02001211WS02001212    1.00   0.00  0.01  0.00  0.99  0.00  0.00  0.00  0.00  0.00
  WS02001212WS02001213    1.00   0.01  0.00  0.00  0.58  0.00  0.41  0.00  0.00  0.00
  WS02001213WS02003059    1.00   0.00  0.00  0.00  1.00  0.00  0.00  0.00  0.00  0.00
  WS02003059WS02003060    1.00   0.00  0.00  0.00  1.00  0.00  0.00  0.00  0.04  0.00
  WS02003060WS02003069    1.00   0.00  0.00  0.00  0.98  0.02  0.00  0.00  0.18  0.00
  WS02003066WSF200        1.00   0.08  0.00  0.00  0.00  0.92  0.00  0.00  0.56  0.00
  WS02003067WS02003066    1.00   0.07  0.01  0.00  0.92  0.00  0.00  0.00  0.00  0.00
  WS02003069WS02003072    1.00   0.00  0.00  0.00  1.00  0.00  0.00  0.00  0.32  0.00
  WS02003072WS02003073    1.00   0.00  0.00  0.00  0.00  0.00  0.00  1.00  0.00  0.00
  WS02004138WS02004139    1.00   0.01  0.00  0.00  0.99  0.00  0.00  0.00  0.97  0.00
  WS02004139WS02001211    1.00   0.00  0.00  0.00  1.00  0.00  0.00  0.00  0.01  0.00
  WS02004401WS02004402    1.00   0.00  0.00  0.00  1.00  0.00  0.00  0.00  0.00  0.00
  WS02004402WS02004403    1.00   0.00  0.00  0.00  1.00  0.00  0.00  0.00  0.00  0.00
  WS02004403WS02004404    1.00   0.00  0.00  0.00  1.00  0.00  0.00  0.00  0.00  0.00
  WS02004404WS02004405    1.00   0.00  0.00  0.00  1.00  0.00  0.00  0.00  0.00  0.00
  WS02004405WS02004406    1.00   0.00  0.00  0.00  1.00  0.00  0.00  0.00  0.00  0.00
  WS02004406WS02004407    1.00   0.00  0.00  0.00  1.00  0.00  0.00  0.00  0.01  0.00
  WS02004407WS02004409    1.00   0.00  0.00  0.00  0.97  0.02  0.00  0.00  0.81  0.00
  WS02004409WS02004410    1.00   0.00  0.00  0.00  1.00  0.00  0.00  0.00  0.03  0.00
  WS02004410WS02004411    1.00   0.00  0.00  0.00  1.00  0.00  0.00  0.00  0.03  0.00
  WS02004411WS02004412    1.00   0.00  0.00  0.00  1.00  0.00  0.00  0.00  0.01  0.00
  WS02004412WS02004413    1.00   0.00  0.00  0.00  1.00  0.00  0.00  0.00  0.02  0.00
  WS02004413WS02003067    1.00   0.00  0.06  0.00  0.00  0.00  0.93  0.00  0.00  0.00
  WS02006109WS02006110    1.00   0.00  0.00  0.00  1.00  0.00  0.00  0.00  0.00  0.00
  WS02006110WS02006113    1.00   0.00  0.00  0.00  1.00  0.00  0.00  0.00  0.00  0.00
  WS02006111WS02006112    1.00   0.00  0.00  0.00  1.00  0.00  0.00  0.00  0.73  0.00
  WS02006112WS02006115    1.00   0.00  0.00  0.00  1.00  0.00  0.00  0.00  0.00  0.00
  WS02006113WS02006111    1.00   0.00  0.00  0.00  0.26  0.74  0.00  0.00  0.21  0.00
  WS02006115WS02006116    1.00   0.00  0.00  0.00  1.00  0.00  0.00  0.00  0.00  0.00
  WS02006116WS02004401    1.00   0.00  0.00  0.00  1.00  0.00  0.00  0.00  0.00  0.00
  WS02006228WS02006109    1.00   0.00  0.00  0.00  1.00  0.00  0.00  0.00  0.00  0.00
  WS02006229WS02006228    1.00   0.00  0.00  0.00  1.00  0.00  0.00  0.00  0.00  0.00
  WS02006230WS02006229    1.00   0.00  0.00  0.00  1.00  0.00  0.00  0.00  0.01  0.00
  WS02006231WS02006230    1.00   0.00  0.00  0.00  0.58  0.00  0.42  0.00  0.00  0.00
  WS02006232WS02006231    1.00   0.00  0.00  0.00  0.99  0.00  0.00  0.00  0.01  0.00
  WS02006234WS02006232    1.00   0.00  0.00  0.00  1.00  0.00  0.00  0.00  0.06  0.00
  WS02006235WS02006234    1.00   0.02  0.00  0.00  0.96  0.00  0.03  0.00  0.00  0.00
  WS02006238WS02006235    1.00   0.02  0.00  0.00  0.98  0.00  0.00  0.00  0.00  0.00
  WS02006239WS02006238    1.00   0.02  0.00  0.00  0.98  0.00  0.00  0.00  0.03  0.00
  WS02006240WS02006239    1.00   0.01  0.00  0.00  0.94  0.00  0.00  0.05  0.03  0.00
  WS02006242WS02006240    1.00   0.01  0.00  0.00  0.98  0.00  0.00  0.00  0.00  0.00
  WS02006243WS02006242    1.00   0.01  0.00  0.00  0.98  0.00  0.00  0.00  0.27  0.00
  WS02006245WS02006243    1.00   0.01  0.00  0.00  0.91  0.00  0.00  0.08  0.01  0.00
  WS02006247WS02006245    1.00   0.01  0.00  0.00  0.97  0.00  0.00  0.02  0.00  0.00
  WS02006248WS02006247    1.00   0.01  0.00  0.00  0.98  0.00  0.00  0.01  0.29  0.00
  WS02006249WS02006248    1.00   0.00  0.01  0.00  0.81  0.00  0.19  0.00  0.00  0.00
  WS02006251WS02006249    1.00   0.00  0.00  0.00  1.00  0.00  0.00  0.00  0.29  0.00
  WS02006252WS02006251    1.00   0.01  0.06  0.00  0.25  0.00  0.67  0.00  0.03  0.00
  WS02006253WS02006251    1.00   0.01  0.00  0.00  0.99  0.00  0.00  0.00  0.00  0.00
  WS02006256WS02006235    1.00   0.02  0.00  0.00  0.98  0.00  0.00  0.00  0.00  0.00
  WS02006280WS02006229    1.00   0.12  0.00  0.00  0.22  0.03  0.00  0.63  0.00  0.00
  WS02006284WS02006280    1.00   0.12  0.00  0.00  0.15  0.01  0.00  0.72  0.00  0.00
  WS02006287WS02006284    1.00   0.09  0.04  0.00  0.50  0.37  0.00  0.00  0.54  0.00
  WSF200WS02003060        1.00   0.00  0.08  0.00  0.47  0.45  0.00  0.00  0.36  0.00
  YS02001580YS02001583    1.00   0.22  0.50  0.00  0.28  0.00  0.00  0.00  0.57  0.00
  YS02001583YS02001586    1.00   0.15  0.51  0.00  0.34  0.00  0.00  0.00  0.57  0.00
  YS02001586YS02001590    1.00   0.11  0.00  0.00  0.62  0.05  0.00  0.23  0.48  0.00
  YS02001590YS02001593    1.00   0.11  0.00  0.00  0.17  0.00  0.71  0.00  0.00  0.00
  YS02001593YS02001596    1.00   0.11  0.00  0.00  0.20  0.01  0.00  0.67  0.03  0.00
  YS02001596YS02001600    1.00   0.11  0.00  0.00  0.29  0.02  0.00  0.57  0.06  0.00
  YS02001600YS02001601    1.00   0.11  0.00  0.00  0.89  0.00  0.00  0.00  0.47  0.00
  YS02001601YS02001602    1.00   0.11  0.00  0.00  0.89  0.00  0.00  0.00  0.00  0.00
  YS02001602YS02001605    1.00   0.11  0.00  0.00  0.89  0.00  0.00  0.00  0.00  0.00
  YS02001605YS02001607    1.00   0.11  0.00  0.00  0.89  0.00  0.00  0.00  0.00  0.00
  YS02001607YS02001610    1.00   0.11  0.00  0.00  0.88  0.00  0.00  0.00  0.02  0.00
  YS02001610YS02001613    1.00   0.11  0.00  0.00  0.89  0.00  0.00  0.00  0.01  0.00
  YS02001613YS02001616    1.00   0.11  0.00  0.00  0.89  0.00  0.00  0.00  0.01  0.00
  YS02001616YS02001619    1.00   0.11  0.00  0.00  0.89  0.00  0.00  0.00  0.00  0.00
  YS02001619YS02001622    1.00   0.11  0.00  0.00  0.89  0.00  0.00  0.00  0.05  0.00
  YS02001622YS02001625    1.00   0.11  0.00  0.00  0.89  0.00  0.00  0.00  0.05  0.00
  YS02001625YS02001629    1.00   0.11  0.05  0.00  0.29  0.00  0.56  0.00  0.00  0.00
  YS02001629YS02163301    1.00   0.13  0.01  0.00  0.86  0.00  0.00  0.00  0.00  0.00
  YS02001633YS02163601    1.00   0.00  0.00  0.00  1.00  0.00  0.00  0.00  0.20  0.00
  YS02001641YS02001644    1.00   0.00  0.00  0.00  1.00  0.00  0.00  0.00  0.00  0.00
  YS02001644YS02001647    1.00   0.00  0.15  0.00  0.85  0.00  0.00  0.00  0.00  0.00
  YS02001647YS02001649    1.00   0.00  0.15  0.00  0.73  0.11  0.00  0.00  0.34  0.00
  YS02001649YS02001757    1.00   0.00  0.00  0.00  0.86  0.14  0.00  0.00  0.37  0.00
  YS02001652YS02001649    1.00   0.00  0.00  0.00  0.96  0.04  0.00  0.00  0.45  0.00
  YS02001655YS02001652    1.00   0.00  0.00  0.00  0.52  0.02  0.00  0.46  0.13  0.00
  YS02001658YS02001655    1.00   0.00  0.12  0.00  0.72  0.17  0.00  0.00  0.56  0.00
  YS02001661YS02001658    1.00   0.12  0.00  0.00  0.35  0.53  0.00  0.00  0.65  0.00
  YS02001664YS02001661    1.00   0.11  0.00  0.00  0.68  0.21  0.00  0.00  0.81  0.00
  YS02001745YS02001748    1.00   0.00  0.00  0.00  0.12  0.03  0.00  0.84  0.12  0.00
  YS02001748YS02001751    1.00   0.00  0.00  0.00  0.89  0.11  0.00  0.00  0.69  0.00
  YS02001751YS02001754    1.00   0.00  0.00  0.00  0.46  0.02  0.00  0.52  0.10  0.00
  YS02001754YS02001757    1.00   0.00  0.00  0.00  1.00  0.00  0.00  0.00  0.52  0.00
  YS02001757CaochengTiaoxuchi    1.00   0.00  0.00  0.00  0.72  0.28  0.00  0.00  0.21  0.00
  YS02001759YS02001757    1.00   0.00  0.00  0.00  1.00  0.00  0.00  0.00  0.38  0.00
  YS02001762YS02001759    1.00   0.00  0.00  0.00  1.00  0.00  0.00  0.00  0.05  0.00
  YS02001765YS02001762    1.00   0.00  0.00  0.00  1.00  0.00  0.00  0.00  0.42  0.00
  YS02001767YS02001765    1.00   0.00  0.00  0.00  1.00  0.00  0.00  0.00  0.00  0.00
  YS02001770YS02001767    1.00   0.00  0.00  0.00  1.00  0.00  0.00  0.00  0.00  0.00
  YS02001774YS02001770    1.00   0.00  0.11  0.00  0.89  0.00  0.00  0.00  0.04  0.00
  YS02001779YS02001774    1.00   0.00  0.00  0.00  1.00  0.00  0.00  0.00  0.53  0.00
  YS02001783YS02001784    1.00   0.00  0.16  0.00  0.84  0.00  0.00  0.00  0.41  0.00
  YS02001784YS02001785    1.00   0.00  0.00  0.00  1.00  0.00  0.00  0.00  0.22  0.00
  YS02001786YS02001788    1.00   0.00  0.00  0.00  0.70  0.30  0.00  0.00  0.00  0.00
  YS02001788YS02001790    1.00   0.00  0.00  0.00  0.21  0.79  0.00  0.00  0.73  0.00
  YS02001790YS02001791    1.00   0.00  0.00  0.00  0.01  0.99  0.00  0.00  0.22  0.00
  YS02001791YS02001793    1.00   0.00  0.00  0.00  0.01  0.99  0.00  0.00  0.01  0.00
  YS02001793JiankangQianchi    1.00   0.00  0.00  0.00  0.17  0.83  0.00  0.00  0.25  0.00
  YS02001882YS02001884    1.00   0.12  0.01  0.00  0.87  0.00  0.00  0.00  0.00  0.00
  YS02001884YS02001887    1.00   0.03  0.08  0.00  0.90  0.00  0.00  0.00  0.00  0.00
  YS02001887YS02001890    1.00   0.00  0.00  0.00  0.99  0.00  0.01  0.00  0.00  0.00
  YS02001890YS02001895    1.00   0.00  0.14  0.00  0.86  0.00  0.00  0.00  0.00  0.00
  YS02001895YS02001898    1.00   0.14  0.00  0.00  0.84  0.00  0.02  0.00  0.00  0.00
  YS02001898YS02001901    1.00   0.14  0.00  0.00  0.86  0.00  0.00  0.00  0.01  0.00
  YS02001901YS02001904    1.00   0.14  0.00  0.00  0.86  0.00  0.00  0.00  0.00  0.00
  YS02001904YS02001907    1.00   0.00  0.14  0.00  0.86  0.00  0.00  0.00  0.00  0.00
  YS02001907YS02006553    1.00   0.00  0.01  0.00  0.99  0.00  0.00  0.00  0.00  0.00
  YS02001910YS02001907    1.00   0.00  0.00  0.00  0.99  0.00  0.00  0.01  0.16  0.00
  YS02001915YS02001910    1.00   0.00  0.00  0.00  0.98  0.02  0.00  0.00  0.20  0.00
  YS02001918YS02001915    1.00   0.00  0.00  0.00  1.00  0.00  0.00  0.00  0.67  0.00
  YS02001920YS02001918    1.00   0.00  0.00  0.00  1.00  0.00  0.00  0.00  0.01  0.00
  YS02001923YS02001920    1.00   0.00  0.00  0.00  1.00  0.00  0.00  0.00  0.90  0.00
  YS02001926YS02001923    1.00   0.00  0.06  0.00  0.08  0.00  0.86  0.00  0.00  0.00
  YS02001929YS02001926    1.00   0.00  0.11  0.00  0.89  0.00  0.00  0.00  0.76  0.00
  YS02006553YS02006556    1.00   0.00  0.00  0.00  1.00  0.00  0.00  0.00  0.04  0.00
  YS02006556YS02006558    1.00   0.00  0.00  0.00  1.00  0.00  0.00  0.00  0.00  0.00
  YS02006558YS02006561    1.00   0.16  0.00  0.00  0.07  0.77  0.00  0.00  0.25  0.00
  YS02006561YS02001783    1.00   0.16  0.00  0.00  0.12  0.73  0.00  0.00  0.58  0.00
  YS02163301YS02001633    1.00   0.00  0.12  0.00  0.88  0.00  0.00  0.00  0.00  0.00
  YS02163601YS02164001    1.00   0.00  0.08  0.00  0.92  0.00  0.00  0.00  0.00  0.00
  YS02164001YS02001641    1.00   0.00  0.08  0.00  0.92  0.00  0.00  0.00  0.07  0.00
  YSB1154YSB6556          1.00   0.11  0.00  0.00  0.89  0.00  0.00  0.00  0.02  0.00
  YSB1171HS02004479       1.00   0.01  0.00  0.00  0.98  0.00  0.00  0.00  0.13  0.00
  YSB1174YSB1171          1.00   0.02  0.07  0.00  0.91  0.00  0.00  0.00  0.00  0.00
  YSB6556YSB1171          1.00   0.01  0.10  0.00  0.89  0.00  0.00  0.00  0.00  0.00
  
  
  *************************
  Conduit Surcharge Summary
  *************************
  
  ----------------------------------------------------------------------------
                                                           Hours        Hours 
                         --------- Hours Full --------   Above Full   Capacity
  Conduit                Both Ends  Upstream  Dnstream   Normal Flow   Limited
  ----------------------------------------------------------------------------
  HS02004478WS02006287        0.46      0.46      0.65      0.01         0.01
  HS02004479HS02004480        0.65      0.65      0.67      0.01         0.01
  HS02004480HS02004478        0.58      0.65      0.58      1.71         0.58
  HS02004770HS02004777        0.55      0.55      0.56      0.13         0.09
  HS02004777HS02004785        0.50      0.50      0.56      0.01         0.01
  HS02004785HS02004788        0.48      0.50      0.48      1.52         0.47
  HS02004788HS02004792        0.48      0.48      0.61      0.01         0.01
  HS02004792HS02004799        0.61      0.61      0.75      0.01         0.01
  HS02004799HS02004480        0.65      0.65      0.75      0.86         0.01
  HS02004802HS02004478        0.59      0.59      0.66      0.01         0.01
  HS02004807HS02004802        0.64      0.64      0.65      0.20         0.20
  HS02004817HS02004807        0.64      0.64      1.30      0.01         0.01
  HS02004817HS02004824        0.48      0.48      1.30      0.01         0.01
  HS02004824HS02004830        0.44      0.44      0.48      0.01         0.01
  HS02004830HS02004837        0.40      0.40      0.44      0.01         0.01
  HS02004837HS02004842        0.40      0.40      0.56      0.01         0.01
  HS02004842HS02004848        0.33      0.33      0.56      0.01         0.01
  HS02004848HS02004852        0.33      0.33      0.38      0.02         0.01
  HS02004852HS02004856        0.38      0.38      0.40      0.02         0.01
  HS02004856HS02004862        0.33      0.33      0.40      0.01         0.01
  HS02004862HS02004870        0.40      0.40      0.41      0.02         0.04
  HS02004870HS02004876        0.41      0.41      0.47      0.01         0.01
  HS02004876HS02004881        0.44      0.47      0.44      1.53         0.43
  HS02004881HS02006253        0.44      0.44      1.26      0.01         0.01
  HS02004901HS02004770        0.55      0.55      0.56      0.01         0.01
  WS02003072WS02003073        0.01      0.01      0.01      3.13         0.01
  WS02004401WS02004402        1.51      1.51      1.53      1.39         1.38
  WS02004402WS02004403        1.53      1.53      1.53      1.52         1.50
  WS02004403WS02004404        1.53      1.53      1.64      0.01         0.01
  WS02004404WS02004405        1.59      1.64      1.59      4.67         1.58
  WS02004405WS02004406        1.57      1.59      1.57      1.79         1.57
  WS02004406WS02004407        0.01      0.01      1.57      0.01         0.01
  WS02004407WS02004409        0.01      0.01      1.01      0.01         0.01
  WS02004409WS02004410        0.96      1.01      0.96      1.45         0.96
  WS02004410WS02004411        0.88      0.96      0.88      1.49         0.88
  WS02004411WS02004412        0.78      0.88      0.78      1.51         0.78
  WS02004412WS02004413        0.78      0.78      1.33      0.01         0.01
  WS02004413WS02003067        0.01      0.01      1.33      0.01         0.01
  WS02006109WS02006110        1.77      1.78      2.36      1.78         0.01
  WS02006110WS02006113        1.32      1.32      2.29      0.28         0.01
  WS02006111WS02006112        1.29      1.30      2.90      0.01         0.01
  WS02006112WS02006115        1.46      1.46      1.81      0.01         0.01
  WS02006113WS02006111        1.31      1.32      1.31      1.40         1.31
  WS02006115WS02006116        1.46      1.46      1.47      1.47         1.43
  WS02006116WS02004401        1.51      1.51      1.51      1.51         1.48
  WS02006228WS02006109        2.15      2.36      2.15      3.47         2.15
  WS02006229WS02006228        2.10      2.20      2.10      2.89         2.10
  WS02006230WS02006229        2.53      2.71      2.53      4.53         1.41
  WS02006231WS02006230        1.58      1.58      1.62      3.89         1.04
  WS02006232WS02006231        1.60      1.60      2.12      0.01         0.14
  WS02006234WS02006232        1.82      1.82      2.12      0.01         0.01
  WS02006235WS02006234        1.69      1.69      1.88      3.51         1.01
  WS02006238WS02006235        1.90      1.90      2.09      0.01         0.31
  WS02006239WS02006238        1.85      1.93      1.96      1.48         0.21
  WS02006240WS02006239        1.67      1.68      1.69      1.48         0.14
  WS02006242WS02006240        1.67      1.67      2.02      1.82         0.84
  WS02006243WS02006242        1.67      1.67      1.89      0.01         0.01
  WS02006245WS02006243        1.63      1.65      1.65      0.73         0.16
  WS02006247WS02006245        1.62      1.69      1.62      2.90         0.44
  WS02006248WS02006247        1.59      1.59      1.66      0.03         0.01
  WS02006249WS02006248        1.56      1.56      1.62      1.60         0.01
  WS02006251WS02006249        1.60      1.64      1.62      2.06         1.44
  WS02006252WS02006251        2.17      2.17      2.20      1.67         0.01
  WS02006253WS02006251        1.62      1.62      1.70      0.79         0.02
  WS02006256WS02006235        3.85      3.86      5.57      0.18         0.01
  WS02006280WS02006229        0.78      0.78      0.90      0.01         0.01
  WS02006284WS02006280        0.68      0.68      0.77      0.01         0.01
  WS02006287WS02006284        0.57      0.57      0.69      0.25         0.25
  YS02001580YS02001583        0.58      0.58      0.64      0.01         0.01
  YS02001583YS02001586        0.59      0.59      0.73      0.01         0.01
  YS02001586YS02001590        0.74      0.74      0.81      0.01         0.01
  YS02001590YS02001593        0.81      0.81      0.83      0.87         0.01
  YS02001593YS02001596        0.82      0.82      0.94      0.01         0.01
  YS02001596YS02001600        0.99      0.99      1.11      0.01         0.01
  YS02001600YS02001601        1.18      1.18      1.50      0.01         0.01
  YS02001601YS02001602        1.40      1.40      1.53      1.12         0.01
  YS02001602YS02001605        1.33      1.33      1.40      2.25         0.01
  YS02001605YS02001607        1.28      1.33      1.28      1.47         1.28
  YS02001607YS02001610        0.78      0.78      0.81      0.01         0.01
  YS02001610YS02001613        0.77      0.77      0.81      0.01         0.01
  YS02001613YS02001616        0.72      0.72      0.77      0.01         0.01
  YS02001616YS02001619        0.70      0.70      0.72      0.01         0.01
  YS02001619YS02001622        0.70      0.70      0.70      0.83         0.68
  YS02001622YS02001625        0.70      0.70      0.93      0.01         0.01
  YS02001625YS02001629        0.62      0.62      0.93      0.01         0.01
  YS02001629YS02163301        0.92      0.92      0.93      0.37         0.34
  YS02001633YS02163601        0.96      0.96      1.00      0.54         0.54
  YS02001641YS02001644        0.85      0.89      0.85      1.58         0.85
  YS02001644YS02001647        0.48      0.48      0.85      0.04         0.01
  YS02001647YS02001649        0.48      0.48      0.71      0.01         0.01
  YS02001649YS02001757        0.69      0.71      0.86      0.46         0.41
  YS02001652YS02001649        0.34      0.34      0.71      0.01         0.01
  YS02001655YS02001652        0.18      0.18      0.30      0.01         0.01
  YS02001658YS02001655        0.05      0.05      0.18      0.01         0.01
  YS02001661YS02001658        0.01      0.01      0.05      0.01         0.01
  YS02001745YS02001748        0.01      0.01      0.01      0.01         0.01
  YS02001748YS02001751        0.03      0.03      0.09      0.01         0.01
  YS02001751YS02001754        0.09      0.09      0.19      0.01         0.01
  YS02001754YS02001757        0.22      0.22      0.86      0.01         0.01
  YS02001757CaochengTiaoxuchi        0.56      0.86      2.47      0.43         0.08
  YS02001759YS02001757        0.61      0.61      0.86      0.01         0.01
  YS02001762YS02001759        0.50      0.50      0.61      0.01         0.02
  YS02001765YS02001762        0.37      0.37      0.50      0.01         0.01
  YS02001767YS02001765        0.31      0.31      0.37      0.01         0.03
  YS02001770YS02001767        0.31      0.33      0.31      0.53         0.30
  YS02001774YS02001770        0.27      0.27      0.44      0.01         0.01
  YS02001779YS02001774        0.21      0.21      0.44      0.01         0.01
  YS02001783YS02001784        0.52      0.54      0.52      0.68         0.51
  YS02001784YS02001785        0.42      0.52      0.42      0.95         0.42
  YS02001786YS02001788        0.04      0.42      0.04      0.81         0.04
  YS02001788YS02001790        0.04      0.04      0.05      0.01         0.01
  YS02001790YS02001791        0.05      0.05      0.05      0.48         0.01
  YS02001791YS02001793        0.05      0.05      0.08      0.01         0.01
  YS02001793JiankangQianchi        0.07      0.07      0.95      0.01         0.01
  YS02001882YS02001884        0.47      0.47      0.48      0.01         0.01
  YS02001884YS02001887        0.51      0.51      0.52      0.01         0.01
  YS02001887YS02001890        0.54      0.54      0.55      0.01         0.01
  YS02001890YS02001895        0.46      0.46      0.57      0.01         0.01
  YS02001895YS02001898        0.46      0.46      0.46      0.01         0.01
  YS02001898YS02001901        0.47      0.47      0.51      0.01         0.01
  YS02001901YS02001904        0.50      0.50      0.51      0.01         0.01
  YS02001904YS02001907        0.50      0.50      0.78      0.01         0.01
  YS02001907YS02006553        0.96      0.96      1.03      0.01         0.01
  YS02001910YS02001907        0.57      0.57      0.75      0.01         0.01
  YS02001915YS02001910        0.47      0.47      0.57      0.01         0.01
  YS02001918YS02001915        0.38      0.38      0.47      0.01         0.01
  YS02001920YS02001918        0.38      0.38      0.40      0.01         0.01
  YS02001923YS02001920        0.34      0.34      0.40      0.01         0.01
  YS02001926YS02001923        0.01      0.01      0.02      0.01         0.01
  YS02001929YS02001926        0.01      0.01      0.02      0.01         0.01
  YS02006553YS02006556        0.66      0.66      0.77      0.01         0.01
  YS02006556YS02006558        0.72      0.72      0.80      0.01         0.01
  YS02006558YS02006561        0.44      0.65      0.44      0.90         0.44
  YS02006561YS02001783        0.36      0.36      0.54      0.01         0.01
  YS02163301YS02001633        0.93      0.93      0.98      0.01         0.01
  YS02163601YS02164001        0.89      0.89      1.00      0.28         0.01
  YS02164001YS02001641        0.89      0.89      0.89      0.87         0.80
  YSB1154YSB6556              0.72      0.72      0.89      0.01         0.01
  YSB1171HS02004479           0.60      0.60      0.90      0.01         0.01
  YSB1174YSB1171              0.79      0.79      1.19      0.01         0.01
  YSB6556YSB1171              0.72      0.72      1.39      0.01         0.01
  
  
  ***************
  Pumping Summary
  ***************
  
  ---------------------------------------------------------------------------------------------------------
                                                  Min       Avg       Max     Total     Power    % Time Off
                        Percent   Number of      Flow      Flow      Flow    Volume     Usage    Pump Curve
  Pump                 Utilized   Start-Ups       LPS       LPS       LPS  10^6 ltr     Kw-hr    Low   High
  ---------------------------------------------------------------------------------------------------------
  CC-R1                   66.58           9      0.00    562.33    683.00     7.086    123.34    0.0   67.3
  CC-R2                   30.62           9      0.00    550.75    683.00     3.171     55.07    0.0   71.6
  CC-S1                   63.78           7      0.00    165.87    200.00     1.977     14.49    0.0   47.5
  CC-S2                   38.76           9      0.00    156.48    200.00     1.217      8.76    0.0   45.7
  JK-R1                   69.38           8      0.00    241.99   1000.00     3.270     15.69    0.0    0.0
  JK-R2                   35.99           8      0.00    134.56   1000.00     0.831      5.57    0.0    0.0
  JK-S                    38.78           7      0.00     69.52    300.00     0.495     10.03    0.0    0.0
  XR-1                    97.21           1      0.00     95.00     95.00     1.995      8.83    0.0    0.0
  XR-2                    91.97           1      0.00     95.00     95.00     1.887      8.00    0.0    0.0
  XR-3                     0.00           0      0.00      0.00      0.00     0.000      0.00    0.0    0.0
  XR-4                     0.00           0      0.00      0.00      0.00     0.000      0.00    0.0    0.0
  

  Analysis begun on:  Mon Aug 22 16:56:52 2022
  Analysis ended on:  Mon Aug 22 16:56:57 2022
  Total elapsed time: 00:00:05