
  OWA STORM WATER MANAGEMENT MODEL - VERSION v5.1.14 (OWA 2022-07-31)
  --------------------------------------------------------------

  WARNING 04: minimum elevation drop used for Conduit WS02004404WS02004405
  WARNING 03: negative offset ignored for Link YS02001904YS02001907
  
  *********************************************************
  NOTE: The summary statistics displayed in this report are
  based on results found at every computational time step,  
  not just on results from each reporting time step.
  *********************************************************
  
  ****************
  Analysis Options
  ****************
  Flow Units ............... LPS
  Process Models:
    Rainfall/Runoff ........ YES
    RDII ................... NO
    Snowmelt ............... NO
    Groundwater ............ NO
    Flow Routing ........... YES
    Ponding Allowed ........ NO
    Water Quality .......... NO
  Infiltration Method ...... HORTON
  Flow Routing Method ...... DYNWAVE
  Surcharge Method ......... EXTRAN
  Starting Date ............ 01/01/2000 00:00:00
  Ending Date .............. 01/01/2000 06:00:00
  Antecedent Dry Days ...... 8.0
  Report Time Step ......... 00:01:00
  Wet Time Step ............ 00:01:00
  Dry Time Step ............ 00:01:00
  Routing Time Step ........ 30.00 sec
  Variable Time Step ....... YES
  Maximum Trials ........... 8
  Number of Threads ........ 4
  Head Tolerance ........... 0.001500 m
  
  
  **************************        Volume         Depth
  Runoff Quantity Continuity     hectare-m            mm
  **************************     ---------       -------
  Total Precipitation ......         2.490        41.096
  Evaporation Loss .........         0.000         0.000
  Infiltration Loss ........         0.221         3.643
  Surface Runoff ...........         2.205        36.398
  Final Storage ............         0.064         1.064
  Continuity Error (%) .....        -0.022
  
  
  **************************        Volume        Volume
  Flow Routing Continuity        hectare-m      10^6 ltr
  **************************     ---------     ---------
  Dry Weather Inflow .......         0.472         4.722
  Wet Weather Inflow .......         2.205        22.050
  Groundwater Inflow .......         0.000         0.000
  RDII Inflow ..............         0.000         0.000
  External Inflow ..........         0.078         0.784
  External Outflow .........         1.827        18.266
  Flooding Loss ............         0.816         8.160
  Evaporation Loss .........         0.000         0.000
  Exfiltration Loss ........         0.000         0.000
  Initial Stored Volume ....         0.303         3.031
  Final Stored Volume ......         0.533         5.330
  Continuity Error (%) .....        -3.826
  
  
  *************************
  Highest Continuity Errors
  *************************
  Node JK-storage (-35.24%)
  Node YS02001583 (-9.36%)
  Node YS02001884 (5.33%)
  Node HS02004842 (2.00%)
  Node YS02001774 (1.95%)
  
  
  ***************************
  Time-Step Critical Elements
  ***************************
  Link WS02006235WS02006234 (23.76%)
  Link WS02006280WS02006229 (19.71%)
  Link WS02004404WS02004405 (11.79%)
  Link YS02001793JiankangQianchi (11.12%)
  Link WS02003066WSF200 (10.11%)
  
  
  ********************************
  Highest Flow Instability Indexes
  ********************************
  Link WS02006111WS02006112 (48)
  Link WS02006113WS02006111 (48)
  Link WS02006110WS02006113 (36)
  Link WS02006238WS02006235 (28)
  Link WS02004404WS02004405 (26)
  
  
  *************************
  Routing Time Step Summary
  *************************
  Minimum Time Step           :     0.50 sec
  Average Time Step           :     2.08 sec
  Maximum Time Step           :     8.46 sec
  Percent in Steady State     :     0.00
  Average Iterations per Step :     3.59
  Percent Not Converging      :    17.65
  
  
  ***************************
  Subcatchment Runoff Summary
  ***************************
  
  ------------------------------------------------------------------------------------------------------------------------------
                            Total      Total      Total      Total     Imperv       Perv      Total       Total     Peak  Runoff
                           Precip      Runon       Evap      Infil     Runoff     Runoff     Runoff      Runoff   Runoff   Coeff
  Subcatchment                 mm         mm         mm         mm         mm         mm         mm    10^6 ltr      LPS
  ------------------------------------------------------------------------------------------------------------------------------
  sub0                      41.10       0.00       0.00       0.92      36.96       1.96      38.91        0.03    22.06   0.947
  sub1                      41.10       0.00       0.00       1.56      35.27       2.96      38.23        0.25   161.35   0.930
  sub10                     41.10       0.00       0.00       1.10      36.48       2.19      38.66        0.43   274.43   0.941
  sub11                     41.10       0.00       0.00       1.08      36.51       2.20      38.71        0.45   299.89   0.942
  sub12                     41.10       0.00       0.00       1.76      34.56       3.58      38.14        0.33   232.98   0.928
  sub14                     41.10       0.00       0.00       1.24      36.10       2.46      38.56        0.37   241.16   0.938
  sub15                     41.10       0.00       0.00       4.87      27.76       7.46      35.22        0.61   368.93   0.857
  sub16                     41.10       0.00       0.00       5.03      26.61       8.54      35.15        0.37   243.01   0.855
  sub17                     41.10       0.00       0.00       4.90      27.00       8.25      35.25        0.30   198.11   0.858
  sub2                      41.10       0.00       0.00       6.93      24.93       8.28      33.21        0.31   162.14   0.808
  sub22                     41.10       0.00       0.00       7.38      22.62      10.29      32.91        2.08  1209.44   0.801
  sub23                     41.10       0.00       0.00       6.02      25.01       9.19      34.19        1.63  1005.06   0.832
  sub3                      41.10       0.00       0.00       7.48      24.86       7.73      32.59        0.73   347.90   0.793
  sub4                      41.10       0.00       0.00       1.75      34.98       2.77      37.75        0.79   388.89   0.919
  sub5                      41.10       0.00       0.00       0.96      36.86       1.92      38.78        0.44   278.59   0.944
  sub60                     41.10       0.00       0.00       1.66      34.93       3.27      38.20        0.50   338.58   0.930
  sub61                     41.10       0.00       0.00       2.41      32.95       4.58      37.53        0.69   467.58   0.913
  sub62                     41.10       0.00       0.00       1.11      36.47       2.18      38.65        1.06   674.54   0.940
  sub63                     41.10       0.00       0.00       4.46      28.18       7.46      35.64        0.81   523.71   0.867
  sub64                     41.10       0.00       0.00       2.25      33.66       3.91      37.57        0.90   549.44   0.914
  sub65                     41.10       0.00       0.00       1.95      34.42       3.39      37.81        1.04   615.70   0.920
  sub66                     41.10       0.00       0.00       5.51      27.99       6.41      34.41        1.60   784.54   0.837
  sub67                     41.10       0.00       0.00       1.07      36.54       2.22      38.76        0.72   497.12   0.943
  sub68                     41.10       0.00       0.00       2.00      34.12       3.76      37.87        1.04   684.37   0.922
  sub69                     41.10       0.00       0.00       1.74      34.74       4.42      39.16        1.45   824.39   0.953
  sub7                      41.10       0.00       0.00       1.22      36.12       2.48      38.60        0.13    88.02   0.939
  sub70                     41.10       0.00       0.00       5.82      26.84       8.15      34.99        1.01   442.08   0.851
  sub71                     41.10       0.00       0.00       1.14      36.39       2.15      38.54        1.01   599.34   0.938
  sub72                     41.10       0.00       0.00       1.01      36.68       1.87      38.55        0.53   289.06   0.938
  sub8                      41.10       0.00       0.00       1.23      36.11       2.47      38.57        0.25   163.39   0.939
  sub9                      41.10       0.00       0.00       1.24      36.10       2.46      38.57        0.19   122.37   0.938
  
  
  ******************
  Node Depth Summary
  ******************
  
  ---------------------------------------------------------------------------------
                                 Average  Maximum  Maximum  Time of Max    Reported
                                   Depth    Depth      HGL   Occurrence   Max Depth
  Node                 Type       Meters   Meters   Meters  days hr:min      Meters
  ---------------------------------------------------------------------------------
  HS02004478           JUNCTION     0.23     1.55    10.78     0  02:06        1.50
  HS02004479           JUNCTION     0.31     1.70    10.90     0  02:03        1.66
  HS02004480           JUNCTION     0.28     1.67    10.91     0  02:06        1.61
  HS02004770           JUNCTION     0.28     1.42    11.25     0  02:03        1.42
  HS02004777           JUNCTION     0.31     1.48    11.28     0  02:03        1.44
  HS02004785           JUNCTION     0.20     1.49    11.39     0  02:03        1.32
  HS02004788           JUNCTION     0.16     1.42    11.32     0  02:03        1.31
  HS02004792           JUNCTION     0.22     1.60    11.12     0  02:03        1.60
  HS02004799           JUNCTION     0.34     1.76    10.97     0  02:03        1.76
  HS02004802           JUNCTION     0.33     1.77    10.90     0  02:06        1.65
  HS02004807           JUNCTION     0.30     1.92    11.09     0  02:06        1.67
  HS02004817           JUNCTION     0.61     2.40    11.24     0  02:06        2.02
  HS02004824           JUNCTION     0.17     1.97    11.38     0  02:06        1.49
  HS02004830           JUNCTION     0.17     2.01    11.48     0  02:06        1.43
  HS02004837           JUNCTION     0.14     2.04    11.62     0  02:04        1.32
  HS02004842           JUNCTION     0.44     2.22    11.49     0  02:06        1.63
  HS02004848           JUNCTION     0.11     2.05    11.65     0  02:06        1.40
  HS02004852           JUNCTION     0.12     2.12    11.63     0  02:06        1.50
  HS02004856           JUNCTION     0.18     2.07    11.50     0  02:06        1.96
  HS02004862           JUNCTION     0.14     2.00    11.38     0  02:05        1.37
  HS02004870           JUNCTION     0.13     2.10    11.39     0  02:05        1.38
  HS02004876           JUNCTION     0.18     2.17    11.20     0  02:05        1.51
  HS02004881           JUNCTION     0.12     2.15    11.18     0  02:05        1.34
  HS02004901           JUNCTION     0.29     1.42    11.24     0  02:03        1.42
  WS02001211           JUNCTION     0.65     0.80     5.64     0  02:13        0.80
  WS02001212           JUNCTION     0.40     0.56     5.63     0  02:12        0.56
  WS02001213           JUNCTION     0.65     0.86     5.62     0  02:11        0.86
  WS02003059           JUNCTION     0.71     0.93     5.62     0  02:10        0.93
  WS02003060           JUNCTION     0.45     0.68     5.61     0  02:10        0.68
  WS02003066           JUNCTION     0.28     0.45     6.00     0  02:10        0.45
  WS02003067           JUNCTION     0.63     0.88     6.20     0  02:10        0.88
  WS02003069           JUNCTION     0.50     0.77     5.35     0  02:11        0.77
  WS02003072           JUNCTION     0.56     0.80     5.17     0  02:12        0.80
  WS02003073           JUNCTION     0.34     0.51     4.57     0  02:12        0.51
  WS02004138           JUNCTION     0.13     0.14     7.39     0  00:29        0.14
  WS02004139           JUNCTION     0.59     0.73     5.64     0  02:12        0.73
  WS02004401           JUNCTION     0.90     1.84     7.84     0  01:55        1.76
  WS02004402           JUNCTION     0.91     1.74     7.70     0  01:55        1.71
  WS02004403           JUNCTION     0.91     1.72     7.65     0  01:55        1.65
  WS02004404           JUNCTION     0.97     1.80     7.65     0  01:55        1.65
  WS02004405           JUNCTION     0.96     1.81     7.66     0  01:55        1.61
  WS02004406           JUNCTION     0.95     1.80     7.63     0  01:55        1.50
  WS02004407           JUNCTION     0.33     0.86     7.17     0  02:10        0.86
  WS02004409           JUNCTION     0.68     1.34     7.11     0  02:10        1.33
  WS02004410           JUNCTION     0.67     1.26     6.98     0  02:10        1.25
  WS02004411           JUNCTION     0.67     1.17     6.85     0  02:09        1.17
  WS02004412           JUNCTION     0.66     1.08     6.72     0  02:10        1.08
  WS02004413           JUNCTION     0.78     1.13     6.60     0  02:10        1.13
  WS02006109           JUNCTION     1.16     2.64     9.26     0  02:03        2.64
  WS02006110           JUNCTION     1.08     2.36     8.94     0  02:09        2.35
  WS02006111           JUNCTION     0.50     1.65     8.36     0  02:09        1.64
  WS02006112           JUNCTION     1.14     2.26     8.14     0  02:09        2.25
  WS02006113           JUNCTION     0.61     1.76     8.65     0  02:09        1.75
  WS02006115           JUNCTION     0.84     2.02     8.16     0  01:55        1.85
  WS02006116           JUNCTION     0.90     1.99     8.03     0  01:55        1.84
  WS02006228           JUNCTION     1.24     3.03     9.68     0  02:03        3.00
  WS02006229           JUNCTION     1.26     3.24     9.93     0  02:03        3.19
  WS02006230           JUNCTION     1.22     2.65     9.39     0  01:53        2.65
  WS02006231           JUNCTION     0.91     2.24     9.36     0  01:53        2.19
  WS02006232           JUNCTION     1.02     2.18     9.22     0  01:53        2.18
  WS02006234           JUNCTION     0.94     1.96     9.12     0  01:53        1.96
  WS02006235           JUNCTION     0.96     2.00     9.16     0  01:53        1.93
  WS02006238           JUNCTION     0.99     2.13     9.27     0  01:53        1.92
  WS02006239           JUNCTION     0.96     1.96     9.17     0  01:53        1.78
  WS02006240           JUNCTION     0.92     1.76     9.05     0  01:53        1.62
  WS02006242           JUNCTION     0.98     1.55     8.82     0  01:53        1.55
  WS02006243           JUNCTION     0.89     1.48     8.90     0  01:53        1.36
  WS02006245           JUNCTION     0.88     1.50     8.99     0  01:53        1.26
  WS02006247           JUNCTION     0.89     1.33     8.83     0  01:53        1.22
  WS02006248           JUNCTION     0.85     1.10     8.69     0  01:53        1.10
  WS02006249           JUNCTION     0.87     1.09     8.69     0  01:53        1.09
  WS02006251           JUNCTION     1.01     2.21     9.88     0  02:05        2.07
  WS02006252           JUNCTION     0.65     1.50     9.74     0  01:50        1.50
  WS02006253           JUNCTION     1.08     3.52    11.16     0  02:05        2.67
  WS02006256           JUNCTION     1.24     2.35     9.28     0  00:00        2.35
  WS02006280           JUNCTION     0.31     1.76    10.03     0  02:03        1.70
  WS02006284           JUNCTION     0.57     1.93    10.33     0  02:06        1.89
  WS02006287           JUNCTION     0.30     1.71    10.66     0  02:06        1.66
  WSF200               JUNCTION     0.29     0.51     5.74     0  02:11        0.51
  YS02001580           JUNCTION     0.09     1.05     9.59     0  02:03        0.77
  YS02001583           JUNCTION     0.13     1.14     9.64     0  02:03        0.82
  YS02001586           JUNCTION     0.21     1.13     9.30     0  02:02        1.13
  YS02001590           JUNCTION     0.31     1.40     9.26     0  02:01        1.37
  YS02001593           JUNCTION     0.25     1.45     9.31     0  02:01        1.28
  YS02001596           JUNCTION     0.36     1.69     9.11     0  02:03        1.65
  YS02001600           JUNCTION     0.49     1.87     9.00     0  02:03        1.86
  YS02001601           JUNCTION     0.70     2.06     8.90     0  02:01        2.06
  YS02001602           JUNCTION     0.62     1.87     8.77     0  02:03        1.87
  YS02001605           JUNCTION     0.58     1.78     8.68     0  02:03        1.77
  YS02001607           JUNCTION     0.58     1.65     8.49     0  02:07        1.64
  YS02001610           JUNCTION     0.63     1.68     8.48     0  02:03        1.68
  YS02001613           JUNCTION     0.58     1.68     8.52     0  02:03        1.65
  YS02001616           JUNCTION     0.52     1.61     8.52     0  02:03        1.58
  YS02001619           JUNCTION     0.50     1.61     8.54     0  02:03        1.56
  YS02001622           JUNCTION     0.50     1.62     8.52     0  02:03        1.55
  YS02001625           JUNCTION     0.77     1.78     8.38     0  02:03        1.78
  YS02001629           JUNCTION     0.73     1.85     8.40     0  02:03        1.85
  YS02001633           JUNCTION     0.81     2.02     8.48     0  02:06        1.97
  YS02001641           JUNCTION     0.80     1.97     8.41     0  02:06        1.94
  YS02001644           JUNCTION     0.79     1.92     8.35     0  02:06        1.92
  YS02001647           JUNCTION     0.60     1.77     8.38     0  02:07        1.68
  YS02001649           JUNCTION     0.77     2.01     8.40     0  02:07        1.84
  YS02001652           JUNCTION     0.59     2.15     8.75     0  02:07        1.65
  YS02001655           JUNCTION     0.41     2.09     8.94     0  02:07        1.77
  YS02001658           JUNCTION     0.26     2.30     9.44     0  02:07        1.15
  YS02001661           JUNCTION     0.19     0.95     8.35     0  02:08        0.93
  YS02001664           JUNCTION     0.06     0.40     8.32     0  02:08        0.32
  YS02001745           JUNCTION     0.09     0.69     8.20     0  02:08        0.67
  YS02001748           JUNCTION     0.27     1.93     9.01     0  02:08        1.08
  YS02001751           JUNCTION     0.38     2.20     9.08     0  02:06        1.27
  YS02001754           JUNCTION     0.56     1.93     8.54     0  02:06        1.53
  YS02001757           JUNCTION     0.86     2.01     8.27     0  02:06        1.87
  YS02001759           JUNCTION     0.77     1.95     8.31     0  02:06        1.84
  YS02001762           JUNCTION     0.74     1.91     8.31     0  02:08        1.84
  YS02001765           JUNCTION     0.70     1.90     8.35     0  02:06        1.81
  YS02001767           JUNCTION     0.67     1.94     8.43     0  02:05        1.81
  YS02001770           JUNCTION     0.67     1.95     8.44     0  02:05        1.87
  YS02001774           JUNCTION     0.74     1.98     8.40     0  02:07        1.94
  YS02001779           JUNCTION     0.50     1.68     8.37     0  02:05        1.68
  YS02001783           JUNCTION     0.25     1.36     7.50     0  02:05        1.28
  YS02001784           JUNCTION     0.27     1.17     7.24     0  02:05        1.15
  YS02001786           JUNCTION     0.22     0.92     6.95     0  02:06        0.89
  YS02001788           JUNCTION     0.16     0.62     6.60     0  02:09        0.62
  YS02001790           JUNCTION     0.19     0.72     6.36     0  02:13        0.71
  YS02001791           JUNCTION     0.12     0.44     5.91     0  02:10        0.43
  YS02001793           JUNCTION     0.07     0.25     5.08     0  02:10        0.25
  YS02001882           JUNCTION     0.31     1.66     8.38     0  02:06        1.61
  YS02001884           JUNCTION     0.41     1.75     8.37     0  02:06        1.72
  YS02001887           JUNCTION     0.48     1.82     8.35     0  02:06        1.79
  YS02001890           JUNCTION     0.52     1.81     8.32     0  02:05        1.81
  YS02001895           JUNCTION     0.28     1.57     8.32     0  02:06        1.56
  YS02001898           JUNCTION     0.29     1.57     8.30     0  02:06        1.55
  YS02001901           JUNCTION     0.41     1.68     8.29     0  02:06        1.67
  YS02001904           JUNCTION     0.39     1.64     8.27     0  02:06        1.63
  YS02001907           JUNCTION     0.71     1.96     8.25     0  02:06        1.96
  YS02001910           JUNCTION     0.51     1.98     8.49     0  02:06        1.82
  YS02001915           JUNCTION     0.31     1.93     8.64     0  02:06        1.68
  YS02001918           JUNCTION     0.16     1.81     8.88     0  02:06        1.39
  YS02001920           JUNCTION     0.24     2.07     9.08     0  02:06        1.49
  YS02001923           JUNCTION     0.12     2.00     9.26     0  02:06        1.28
  YS02001926           JUNCTION     0.16     1.90     9.35     0  02:06        1.16
  YS02001929           JUNCTION     0.09     1.78     9.47     0  02:06        0.99
  YS02006553           JUNCTION     0.72     1.99     8.27     0  02:06        1.97
  YS02006556           JUNCTION     0.69     1.97     8.29     0  02:06        1.96
  YS02006558           JUNCTION     0.73     2.02     8.29     0  02:06        2.01
  YS02006561           JUNCTION     0.15     1.07     7.73     0  02:05        0.95
  YS02163301           JUNCTION     0.76     1.93     8.44     0  02:06        1.90
  YS02163601           JUNCTION     0.85     2.06     8.45     0  02:06        2.01
  YS02164001           JUNCTION     0.78     1.98     8.44     0  02:06        1.93
  YSB1154              JUNCTION     0.45     1.97    11.03     0  02:03        1.85
  YSB1171              JUNCTION     0.60     1.95    10.85     0  02:03        1.95
  YSB1174              JUNCTION     0.40     1.83    10.93     0  02:03        1.77
  YSB6556              JUNCTION     0.35     1.80    10.97     0  02:03        1.71
  CC-1                 OUTFALL      0.00     0.00     0.00     0  00:00        0.00
  CC-2                 OUTFALL      0.00     0.00     0.00     0  00:00        0.00
  JK-1                 OUTFALL      0.00     0.00     0.00     0  00:00        0.00
  JK-2                 OUTFALL      0.00     0.00     0.00     0  00:00        0.00
  WSC                  OUTFALL      0.34     0.51     1.18     0  02:13        0.51
  CC-storage           STORAGE      1.50     2.22     7.72     0  02:50        2.22
  JK-storage           STORAGE      0.20     3.02     3.82     0  02:00        2.76
  XR-storage           STORAGE      7.90     8.66     6.66     0  06:00        8.66
  
  
  *******************
  Node Inflow Summary
  *******************
  
  -------------------------------------------------------------------------------------------------
                                  Maximum  Maximum                  Lateral       Total        Flow
                                  Lateral    Total  Time of Max      Inflow      Inflow     Balance
                                   Inflow   Inflow   Occurrence      Volume      Volume       Error
  Node                 Type           LPS      LPS  days hr:min    10^6 ltr    10^6 ltr     Percent
  -------------------------------------------------------------------------------------------------
  HS02004478           JUNCTION      0.00  2245.06     0  02:10           0        6.32      -0.015
  HS02004479           JUNCTION      0.00   431.53     0  02:06           0       0.696       0.119
  HS02004480           JUNCTION      0.00  2125.78     0  02:04           0        4.93       0.055
  HS02004770           JUNCTION   1005.06  1005.06     0  02:10        1.63        1.83       0.168
  HS02004777           JUNCTION      0.03   786.20     0  02:03    0.000648        1.48       0.359
  HS02004785           JUNCTION      0.15   788.70     0  02:02     0.00324        1.48       0.045
  HS02004788           JUNCTION    370.60   970.01     0  02:03       0.642        2.12      -0.006
  HS02004792           JUNCTION   1209.72  1924.37     0  02:10        2.09         4.2       0.008
  HS02004799           JUNCTION    241.16  1749.83     0  02:04       0.367        4.25       0.062
  HS02004802           JUNCTION      0.00   724.91     0  02:10           0        1.43       0.289
  HS02004807           JUNCTION    299.89   724.36     0  02:10        0.45        1.48       0.288
  HS02004817           JUNCTION      0.60   448.02     0  02:03       0.013        1.09       1.554
  HS02004824           JUNCTION    388.94   680.49     0  02:04       0.789        1.25       0.035
  HS02004830           JUNCTION      0.15   678.95     0  02:04     0.00324        0.63       0.190
  HS02004837           JUNCTION    280.78   890.97     0  02:04       0.564       0.921       0.055
  HS02004842           JUNCTION      0.00   876.41     0  02:04           0       0.652       2.044
  HS02004848           JUNCTION    347.90  1095.56     0  02:04       0.734        1.25      -0.010
  HS02004852           JUNCTION      0.00  1035.14     0  02:05           0        1.12       0.001
  HS02004856           JUNCTION    122.37  1100.21     0  02:05       0.186        1.31       0.100
  HS02004862           JUNCTION    162.34  1194.95     0  02:05       0.314        1.62      -0.033
  HS02004870           JUNCTION    163.39  1312.64     0  02:05       0.246        1.86      -0.001
  HS02004876           JUNCTION    161.35  1286.25     0  02:06       0.254        2.12       0.055
  HS02004881           JUNCTION     88.02  1367.01     0  02:06        0.13        2.25       0.006
  HS02004901           JUNCTION    243.01   486.42     0  02:10       0.368        0.53       0.314
  WS02001211           JUNCTION      7.35   229.78     0  02:02       0.159        4.02       0.860
  WS02001212           JUNCTION      0.00   211.23     0  02:45           0        3.98       0.427
  WS02001213           JUNCTION      0.00   215.18     0  02:44           0        3.97       0.578
  WS02003059           JUNCTION      0.00   221.84     0  02:44           0        3.95       1.019
  WS02003060           JUNCTION     16.53  1474.75     0  02:10       0.357        13.7       0.220
  WS02003066           JUNCTION      0.00  1263.81     0  02:10           0         9.4       0.057
  WS02003067           JUNCTION      0.00  1263.04     0  02:10           0        9.41       0.112
  WS02003069           JUNCTION      0.32  1471.53     0  02:11     0.00691        13.6       0.234
  WS02003072           JUNCTION      0.00  1470.98     0  02:12           0        13.6       0.281
  WS02003073           JUNCTION      1.82  1472.70     0  02:12      0.0393        13.6       0.320
  WS02004138           JUNCTION      0.00   190.00     0  00:29           0        3.88       0.080
  WS02004139           JUNCTION      0.32   192.76     0  00:29     0.00693        3.89       0.715
  WS02004401           JUNCTION      0.00  1264.28     0  02:09           0        9.68       0.254
  WS02004402           JUNCTION      0.00  1264.01     0  02:09           0        9.66       0.236
  WS02004403           JUNCTION      0.00  1264.41     0  02:10           0        9.63       0.210
  WS02004404           JUNCTION      0.16  1264.38     0  02:09      0.0035        9.62       0.155
  WS02004405           JUNCTION      0.04  1264.66     0  02:10    0.000823         9.6       0.236
  WS02004406           JUNCTION      0.00  1264.78     0  02:10           0        9.58       0.374
  WS02004407           JUNCTION      0.00  1264.42     0  02:10           0        9.54       0.096
  WS02004409           JUNCTION      0.00  1263.09     0  02:10           0        9.54       0.214
  WS02004410           JUNCTION      0.00  1262.91     0  02:10           0        9.52       0.236
  WS02004411           JUNCTION      0.00  1263.20     0  02:10           0        9.49       0.238
  WS02004412           JUNCTION      0.00  1263.01     0  02:10           0        9.47       0.251
  WS02004413           JUNCTION      0.00  1262.92     0  02:10           0        9.45       0.366
  WS02006109           JUNCTION      1.23  1259.50     0  02:09      0.0266        9.62       0.235
  WS02006110           JUNCTION      0.00  1122.80     0  02:19           0         9.5       0.236
  WS02006111           JUNCTION      0.00  1122.50     0  02:19           0        9.46       0.043
  WS02006112           JUNCTION    198.11  1264.07     0  02:10       0.302        9.76       0.309
  WS02006113           JUNCTION      0.00  1122.49     0  02:19           0        9.47       0.141
  WS02006115           JUNCTION      0.00  1264.04     0  02:10           0        9.73       0.256
  WS02006116           JUNCTION      0.00  1264.15     0  02:10           0         9.7       0.228
  WS02006228           JUNCTION      0.00  1258.60     0  02:09           0        9.62       0.179
  WS02006229           JUNCTION      0.00  2246.06     0  02:09           0        11.2       0.127
  WS02006230           JUNCTION     10.28   997.02     0  02:10       0.222        6.49       0.253
  WS02006231           JUNCTION      0.00   453.28     0  02:15           0        5.69       0.201
  WS02006232           JUNCTION      0.00   453.42     0  02:15           0        5.68       0.322
  WS02006234           JUNCTION      0.00   453.10     0  02:06           0        5.67       0.188
  WS02006235           JUNCTION      0.00   418.73     0  03:32           0        5.66       0.198
  WS02006238           JUNCTION      0.00   418.61     0  03:32           0        5.54       0.158
  WS02006239           JUNCTION      0.00   418.57     0  03:32           0        5.54       0.257
  WS02006240           JUNCTION      0.00   418.51     0  03:32           0        5.55       0.305
  WS02006242           JUNCTION      0.00   418.47     0  03:32           0        5.57       0.337
  WS02006243           JUNCTION      0.00   458.39     0  01:53           0        5.33       0.249
  WS02006245           JUNCTION      0.00   498.63     0  01:53           0        5.34       0.267
  WS02006247           JUNCTION      0.00   508.06     0  01:53           0        5.35       0.172
  WS02006248           JUNCTION      0.00   529.26     0  01:52           0        5.54       0.165
  WS02006249           JUNCTION      0.00  1340.77     0  02:06           0        8.02       0.194
  WS02006251           JUNCTION      0.08  1395.14     0  02:06     0.00166        8.04       0.220
  WS02006252           JUNCTION      0.00   457.06     0  02:06           0        5.99       0.003
  WS02006253           JUNCTION     22.06  1391.63     0  02:06      0.0315        2.28       0.530
  WS02006256           JUNCTION      0.00   300.00     0  00:00           0       0.356      -0.473
  WS02006280           JUNCTION      0.00  2245.16     0  02:09           0        6.31       0.020
  WS02006284           JUNCTION      0.10  2245.24     0  02:10     0.00207        6.31      -0.004
  WS02006287           JUNCTION      0.00  2245.07     0  02:10           0        6.31       0.013
  WSF200               JUNCTION      0.00  1263.85     0  02:10           0         9.4       0.060
  YS02001580           JUNCTION      0.00   136.14     0  02:03           0     0.00446       0.037
  YS02001583           JUNCTION      0.00   222.12     0  02:03           0       0.015      -8.556
  YS02001586           JUNCTION    442.08   442.08     0  02:10        1.01        1.02       0.152
  YS02001590           JUNCTION      0.00   317.86     0  02:12           0       0.952       0.031
  YS02001593           JUNCTION      0.00   318.06     0  02:17           0       0.951       0.009
  YS02001596           JUNCTION      0.00   317.92     0  02:18           0       0.951       0.007
  YS02001600           JUNCTION      0.00   317.89     0  02:18           0       0.951      -0.040
  YS02001601           JUNCTION    824.39  1141.70     0  02:10        1.45         2.4       0.045
  YS02001602           JUNCTION      0.00   549.98     0  02:02           0        1.73       0.044
  YS02001605           JUNCTION      0.00   550.64     0  02:02           0        1.65       0.054
  YS02001607           JUNCTION      0.00   551.24     0  02:02           0        1.65       0.151
  YS02001610           JUNCTION      0.00   543.01     0  02:03           0        1.65       0.165
  YS02001613           JUNCTION      0.00   550.23     0  02:03           0        1.47       0.140
  YS02001616           JUNCTION      0.00   562.81     0  02:03           0        1.47       0.051
  YS02001619           JUNCTION    784.54   953.29     0  02:03         1.6        3.07       0.004
  YS02001622           JUNCTION      0.00   964.53     0  02:03           0        3.07       0.008
  YS02001625           JUNCTION      0.00   949.86     0  02:03           0        3.08       0.546
  YS02001629           JUNCTION      0.00   952.87     0  02:03           0        2.62      -0.130
  YS02001633           JUNCTION    615.90  1356.19     0  02:05        1.05        3.65       0.111
  YS02001641           JUNCTION      0.00  1354.93     0  02:05           0        3.64       0.081
  YS02001644           JUNCTION    549.48  1752.81     0  02:05       0.903        4.54       0.082
  YS02001647           JUNCTION      0.00  1752.74     0  02:05           0        4.52       0.004
  YS02001649           JUNCTION      0.00  1991.65     0  02:05           0        5.33       0.072
  YS02001652           JUNCTION      0.00   558.64     0  02:08           0       0.818      -0.118
  YS02001655           JUNCTION      0.15   558.56     0  02:08     0.00332       0.821      -0.146
  YS02001658           JUNCTION      0.00   652.13     0  02:07           0        0.86      -0.079
  YS02001661           JUNCTION      0.00   646.91     0  02:08           0       0.854       0.066
  YS02001664           JUNCTION    523.71   523.71     0  02:10       0.809       0.809      -0.027
  YS02001745           JUNCTION    338.58   338.58     0  02:10       0.502       0.533       0.411
  YS02001748           JUNCTION      0.04   560.14     0  02:08    0.000972       0.551      -0.485
  YS02001751           JUNCTION      0.01   404.87     0  02:06    0.000238       0.534      -0.050
  YS02001754           JUNCTION      0.26   355.05     0  02:10     0.00562       0.533      -0.379
  YS02001757           JUNCTION      0.00  3057.63     0  02:08           0        7.61       0.324
  YS02001759           JUNCTION    467.62  1147.45     0  02:10        0.69        1.76       0.155
  YS02001762           JUNCTION      0.00   680.99     0  02:10           0        1.07       0.173
  YS02001765           JUNCTION      0.00   679.68     0  02:10           0        1.07       0.122
  YS02001767           JUNCTION      0.54   678.64     0  02:10      0.0116        1.07       0.113
  YS02001770           JUNCTION    674.69   675.67     0  02:10        1.06        1.12       0.028
  YS02001774           JUNCTION      0.00   411.35     0  02:05           0       0.091       1.986
  YS02001779           JUNCTION      0.01   418.92     0  02:05    0.000108      0.0329      -2.848
  YS02001783           JUNCTION      0.00  1152.09     0  02:08           0        2.96       0.009
  YS02001784           JUNCTION      1.06  1153.36     0  02:08      0.0229        2.99       0.021
  YS02001786           JUNCTION      0.06  1153.13     0  02:08     0.00122        2.99       0.026
  YS02001788           JUNCTION      0.07  1152.83     0  02:08     0.00153        2.99       0.012
  YS02001790           JUNCTION      0.15  1164.75     0  02:08     0.00335        2.99       0.008
  YS02001791           JUNCTION      0.00  1275.90     0  02:08           0        2.99      -0.003
  YS02001793           JUNCTION      0.00  1230.57     0  02:09           0        2.99       0.004
  YS02001882           JUNCTION      0.00    50.09     0  02:04           0      0.0123       5.439
  YS02001884           JUNCTION      0.00    88.20     0  02:03           0      0.0476       5.634
  YS02001887           JUNCTION    497.57   497.99     0  02:09       0.731       0.764       0.607
  YS02001890           JUNCTION      0.00   497.93     0  02:09           0       0.723       0.723
  YS02001895           JUNCTION      0.00   497.52     0  02:10           0       0.718       0.199
  YS02001898           JUNCTION      0.00   497.80     0  02:10           0       0.716       0.046
  YS02001901           JUNCTION      0.00   497.76     0  02:10           0       0.719       0.473
  YS02001904           JUNCTION      0.00   497.69     0  02:10           0       0.723       0.402
  YS02001907           JUNCTION      0.00  1433.77     0  02:07           0        2.31       0.775
  YS02001910           JUNCTION      0.00   965.48     0  02:07           0         1.6       0.456
  YS02001915           JUNCTION    599.36   965.27     0  02:07        1.01        1.64       0.102
  YS02001918           JUNCTION      0.00   437.99     0  02:07           0       0.659       0.041
  YS02001920           JUNCTION      2.87   437.76     0  02:07       0.062       0.641       0.162
  YS02001923           JUNCTION      0.04   403.46     0  02:06    0.000814       0.563      -0.059
  YS02001926           JUNCTION      0.05   545.92     0  02:06     0.00113       0.542      -0.021
  YS02001929           JUNCTION    289.06   315.73     0  02:06        0.53       0.531      -0.058
  YS02006553           JUNCTION      0.00   789.70     0  02:18           0        1.95       0.622
  YS02006556           JUNCTION      0.00   790.13     0  02:19           0        1.95       0.418
  YS02006558           JUNCTION    685.25  1169.77     0  02:05        1.06        2.99       0.118
  YS02006561           JUNCTION      0.00  1170.85     0  02:05           0        2.96       0.000
  YS02163301           JUNCTION      0.00   916.51     0  02:05           0        2.62       0.073
  YS02163601           JUNCTION      0.11  1355.98     0  02:05     0.00238        3.64       0.144
  YS02164001           JUNCTION      0.00  1355.47     0  02:05           0        3.64       0.068
  YSB1154              JUNCTION    278.59   278.59     0  02:10       0.439        0.44       0.343
  YSB1171              JUNCTION      0.00   511.51     0  02:09           0        0.78       0.822
  YSB1174              JUNCTION    232.98   232.98     0  02:10       0.333       0.334       0.387
  YSB6556              JUNCTION      0.00   278.44     0  02:10           0       0.441       0.270
  CC-1                 OUTFALL       0.00   683.00     0  02:10           0       0.822       0.000
  CC-2                 OUTFALL       0.00     0.00     0  00:00           0           0       0.000 ltr
  JK-1                 OUTFALL       0.00  1000.00     0  00:00           0        2.42       0.000
  JK-2                 OUTFALL       0.00  1000.00     0  02:00           0        1.47       0.000
  WSC                  OUTFALL       0.00  1473.01     0  02:13           0        13.6       0.000
  CC-storage           STORAGE       0.00  3057.83     0  02:08           0         9.8       0.057
  JK-storage           STORAGE       0.00  1273.43     0  02:09           0        3.14     -26.059
  XR-storage           STORAGE     200.00   200.00     0  00:00        4.32        4.92       0.001
  
  
  **********************
  Node Surcharge Summary
  **********************
  
  Surcharging occurs when water rises above the top of the highest conduit.
  ---------------------------------------------------------------------
                                               Max. Height   Min. Depth
                                   Hours       Above Crown    Below Rim
  Node                 Type      Surcharged         Meters       Meters
  ---------------------------------------------------------------------
  HS02004478           JUNCTION        0.31          0.629        0.311
  HS02004479           JUNCTION        0.42          0.898        0.152
  HS02004480           JUNCTION        0.45          0.959        0.141
  HS02004770           JUNCTION        0.38          0.720        0.000
  HS02004777           JUNCTION        0.38          0.780        0.000
  HS02004785           JUNCTION        0.33          0.790        0.000
  HS02004788           JUNCTION        0.32          0.720        0.000
  HS02004792           JUNCTION        0.42          0.900        0.000
  HS02004799           JUNCTION        0.52          1.060        0.000
  HS02004802           JUNCTION        0.45          1.057        0.153
  HS02004807           JUNCTION        0.44          1.216        0.004
  HS02004817           JUNCTION        0.88          1.696        0.044
  HS02004824           JUNCTION        0.33          1.274        0.036
  HS02004830           JUNCTION        0.30          1.309        0.021
  HS02004837           JUNCTION        0.27          1.340        0.000
  HS02004842           JUNCTION        0.38          1.520        0.000
  HS02004848           JUNCTION        0.24          1.346        0.024
  HS02004852           JUNCTION        0.26          1.420        0.000
  HS02004856           JUNCTION        0.25          1.300        0.000
  HS02004862           JUNCTION        0.28          1.300        0.000
  HS02004870           JUNCTION        0.30          1.400        0.000
  HS02004876           JUNCTION        0.36          1.474        0.086
  HS02004881           JUNCTION        0.34          1.450        0.000
  HS02004901           JUNCTION        0.38          0.720        0.000
  WS02004401           JUNCTION        1.22          0.844        0.816
  WS02004402           JUNCTION        1.24          0.744        0.996
  WS02004403           JUNCTION        1.25          0.718        1.312
  WS02004404           JUNCTION        1.41          0.800        1.980
  WS02004405           JUNCTION        1.37          0.809        1.991
  WS02004406           JUNCTION        1.34          0.803        1.647
  WS02004409           JUNCTION        0.69          0.343        2.017
  WS02004410           JUNCTION        0.67          0.258        2.282
  WS02004411           JUNCTION        0.62          0.175        2.355
  WS02004412           JUNCTION        0.54          0.084        2.226
  WS02004413           JUNCTION        0.98          0.132        2.068
  WS02006109           JUNCTION        4.18          1.820        0.000
  WS02006110           JUNCTION        1.70          1.448        0.402
  WS02006111           JUNCTION        0.85          0.840        1.030
  WS02006112           JUNCTION        1.88          1.261        0.419
  WS02006113           JUNCTION        0.90          0.960        0.970
  WS02006115           JUNCTION        1.11          1.006        1.244
  WS02006116           JUNCTION        1.14          0.925        1.365
  WS02006228           JUNCTION        4.18          2.200        0.000
  WS02006229           JUNCTION        0.67          1.056        0.014
  WS02006230           JUNCTION        1.47          1.570        0.000
  WS02006231           JUNCTION        1.71          1.530        0.000
  WS02006232           JUNCTION        4.11          1.480        0.000
  WS02006234           JUNCTION        3.53          1.240        0.000
  WS02006235           JUNCTION        4.11          1.290        0.000
  WS02006238           JUNCTION        4.11          1.405        0.025
  WS02006239           JUNCTION        4.11          1.221        0.069
  WS02006240           JUNCTION        4.11          1.045        0.345
  WS02006242           JUNCTION        4.11          0.820        0.000
  WS02006243           JUNCTION        4.11          0.770        0.000
  WS02006245           JUNCTION        4.11          0.791        0.059
  WS02006247           JUNCTION        4.11          0.616        0.144
  WS02006248           JUNCTION        4.11          0.380        0.000
  WS02006249           JUNCTION        4.11          0.390        0.000
  WS02006251           JUNCTION        1.85          1.180        0.000
  WS02006252           JUNCTION        4.16          1.100        0.000
  WS02006253           JUNCTION        1.91          2.480        0.000
  WS02006256           JUNCTION        4.68          2.050        0.000
  WS02006280           JUNCTION        0.53          0.708        0.072
  WS02006284           JUNCTION        0.47          0.653        0.147
  WS02006287           JUNCTION        0.40          0.706        0.184
  YS02001580           JUNCTION        0.36          0.450        0.000
  YS02001583           JUNCTION        0.37          0.500        0.000
  YS02001586           JUNCTION        0.54          0.510        0.000
  YS02001590           JUNCTION        0.62          0.750        0.000
  YS02001593           JUNCTION        0.62          0.831        0.009
  YS02001596           JUNCTION        0.75          0.962        0.108
  YS02001600           JUNCTION        1.04          1.190        0.000
  YS02001601           JUNCTION        1.85          1.440        0.000
  YS02001602           JUNCTION        1.69          1.270        0.000
  YS02001605           JUNCTION        1.66          1.180        0.000
  YS02001607           JUNCTION        0.83          0.645        0.035
  YS02001610           JUNCTION        0.88          0.680        0.000
  YS02001613           JUNCTION        0.83          0.681        0.019
  YS02001616           JUNCTION        0.72          0.610        0.000
  YS02001619           JUNCTION        0.69          0.610        0.000
  YS02001622           JUNCTION        0.71          0.620        0.000
  YS02001625           JUNCTION        1.23          0.780        0.000
  YS02001629           JUNCTION        0.62          0.470        0.000
  YS02001633           JUNCTION        1.63          1.001        0.059
  YS02001641           JUNCTION        1.72          0.974        0.126
  YS02001644           JUNCTION        1.73          0.920        0.000
  YS02001647           JUNCTION        1.10          0.767        0.133
  YS02001649           JUNCTION        1.81          1.011        0.039
  YS02001652           JUNCTION        1.01          1.120        0.010
  YS02001655           JUNCTION        0.34          1.087        0.113
  YS02001658           JUNCTION        0.07          1.300        0.000
  YS02001748           JUNCTION        0.01          0.848        0.342
  YS02001751           JUNCTION        0.16          1.200        0.000
  YS02001754           JUNCTION        0.88          0.884        0.266
  YS02001757           JUNCTION        2.16          1.007        0.203
  YS02001759           JUNCTION        1.87          0.946        0.264
  YS02001762           JUNCTION        1.77          0.914        0.236
  YS02001765           JUNCTION        1.63          0.905        0.195
  YS02001767           JUNCTION        1.52          0.940        0.090
  YS02001770           JUNCTION        1.40          0.920        0.000
  YS02001774           JUNCTION        1.70          0.980        0.070
  YS02001779           JUNCTION        0.86          0.680        0.000
  YS02001783           JUNCTION        0.38          0.556        1.044
  YS02001784           JUNCTION        0.35          0.370        1.120
  YS02001786           JUNCTION        0.26          0.123        1.307
  YS02001882           JUNCTION        0.33          0.663        0.167
  YS02001884           JUNCTION        0.34          0.694        0.176
  YS02001887           JUNCTION        0.37          0.767        0.183
  YS02001890           JUNCTION        0.38          0.760        0.000
  YS02001895           JUNCTION        0.32          0.568        0.182
  YS02001898           JUNCTION        0.31          0.539        0.201
  YS02001901           JUNCTION        0.36          0.679        0.191
  YS02001904           JUNCTION        0.35          0.640        0.210
  YS02001907           JUNCTION        0.54          0.950        0.000
  YS02001910           JUNCTION        0.40          0.982        0.118
  YS02001915           JUNCTION        0.33          0.925        0.075
  YS02001918           JUNCTION        0.25          0.810        0.000
  YS02001920           JUNCTION        0.26          1.072        0.068
  YS02001923           JUNCTION        0.01          0.794        0.026
  YS02001926           JUNCTION        0.01          0.900        0.000
  YS02001929           JUNCTION        0.01          0.780        0.000
  YS02006553           JUNCTION        0.55          0.989        0.201
  YS02006556           JUNCTION        0.47          0.934        0.416
  YS02006558           JUNCTION        0.46          0.918        0.482
  YS02006561           JUNCTION        0.22          0.271        0.879
  YS02163301           JUNCTION        1.51          0.926        0.104
  YS02163601           JUNCTION        1.85          1.056        0.024
  YS02164001           JUNCTION        1.67          0.981        0.119
  YSB1154              JUNCTION        0.60          1.273        0.127
  YSB1171              JUNCTION        0.60          1.100        0.000
  YSB1174              JUNCTION        0.55          1.125        0.125
  YSB6556              JUNCTION        0.50          1.100        0.000
  
  
  *********************
  Node Flooding Summary
  *********************
  
  Flooding refers to all water that overflows a node, whether it ponds or not.
  --------------------------------------------------------------------------
                                                             Total   Maximum
                                 Maximum   Time of Max       Flood    Ponded
                        Hours       Rate    Occurrence      Volume     Depth
  Node                 Flooded       LPS   days hr:min    10^6 ltr    Meters
  --------------------------------------------------------------------------
  HS02004770              0.21    417.54      0  02:10       0.191     0.000
  HS02004777              0.01     49.60      0  02:03       0.000     0.000
  HS02004785              0.01    126.70      0  02:03       0.000     0.000
  HS02004788              0.01    409.91      0  02:03       0.002     0.000
  HS02004792              0.21    781.63      0  02:10       0.318     0.000
  HS02004799              0.06     40.88      0  02:06       0.002     0.000
  HS02004837              0.01    157.03      0  02:04       0.000     0.000
  HS02004842              0.01     77.03      0  02:06       0.001     0.000
  HS02004852              0.01    121.02      0  02:06       0.000     0.000
  HS02004856              0.01    306.20      0  02:06       0.002     0.000
  HS02004862              0.01    412.62      0  02:05       0.001     0.000
  HS02004870              0.01    304.08      0  02:05       0.000     0.000
  HS02004881              0.01     38.19      0  02:05       0.000     0.000
  HS02004901              0.27    486.39      0  02:10       0.327     0.000
  WS02006109              0.26    193.57      0  02:10       0.107     0.000
  WS02006228              0.01      3.68      0  02:03       0.000     0.000
  WS02006230              0.48    544.26      0  02:10       0.594     0.000
  WS02006231              0.01    146.84      0  01:53       0.000     0.000
  WS02006232              0.14     37.30      0  01:53       0.000     0.000
  WS02006234              0.52    143.22      0  01:53       0.098     0.000
  WS02006235              0.01     84.77      0  01:53       0.000     0.000
  WS02006242              0.62    137.30      0  02:31       0.250     0.000
  WS02006243              0.01     84.12      0  01:53       0.000     0.000
  WS02006248              0.80    346.86      0  02:01       0.855     0.000
  WS02006249              1.62   1277.48      0  02:06       3.140     0.000
  WS02006251              0.01     54.88      0  02:05       0.000     0.000
  WS02006252              0.29    456.20      0  02:06       0.220     0.000
  WS02006253              0.01    127.90      0  02:05       0.000     0.000
  WS02006256              0.37    292.87      0  00:00       0.145     0.000
  YS02001580              0.01     92.18      0  02:03       0.000     0.000
  YS02001583              0.01    167.75      0  02:03       0.000     0.000
  YS02001586              0.26    124.60      0  02:10       0.058     0.000
  YS02001590              0.01     73.86      0  02:01       0.000     0.000
  YS02001600              0.01      1.53      0  02:03       0.000     0.000
  YS02001601              0.48    743.74      0  02:10       0.668     0.000
  YS02001602              0.43     61.95      0  02:19       0.078     0.000
  YS02001605              0.01      5.07      0  02:03       0.000     0.000
  YS02001610              0.33    270.94      0  02:10       0.176     0.000
  YS02001616              0.01      9.48      0  02:03       0.000     0.000
  YS02001619              0.01    103.26      0  02:03       0.000     0.000
  YS02001622              0.01    185.01      0  02:03       0.000     0.000
  YS02001625              0.33    909.62      0  02:10       0.453     0.000
  YS02001629              0.04    268.90      0  02:03       0.006     0.000
  YS02001644              0.05    128.64      0  02:08       0.014     0.000
  YS02001658              0.01    310.64      0  02:07       0.000     0.000
  YS02001751              0.01    202.87      0  02:06       0.000     0.000
  YS02001770              0.01    184.54      0  02:05       0.000     0.000
  YS02001779              0.01    363.78      0  02:05       0.003     0.000
  YS02001890              0.02     16.66      0  02:06       0.000     0.000
  YS02001907              0.19    908.87      0  02:07       0.357     0.000
  YS02001918              0.01     63.39      0  02:06       0.000     0.000
  YS02001926              0.01    265.66      0  02:06       0.001     0.000
  YS02001929              0.01    270.84      0  02:06       0.001     0.000
  YSB1171                 0.13    347.31      0  02:10       0.085     0.000
  YSB6556                 0.01     14.35      0  02:03       0.000     0.000
  
  
  **********************
  Storage Volume Summary
  **********************
  
  --------------------------------------------------------------------------------------------------
                         Average     Avg  Evap Exfil       Maximum     Max    Time of Max    Maximum
                          Volume    Pcnt  Pcnt  Pcnt        Volume    Pcnt     Occurrence    Outflow
  Storage Unit           1000 m3    Full  Loss  Loss       1000 m3    Full    days hr:min        LPS
  --------------------------------------------------------------------------------------------------
  CC-storage               4.182      65     0     0         6.196      97       0  02:50    1083.00
  JK-storage               0.010       3     0     0         0.152      52       0  02:00    2000.00
  XR-storage               0.948      66     0     0         1.039      72       0  06:00     190.00
  
  
  ***********************
  Outfall Loading Summary
  ***********************
  
  -----------------------------------------------------------
                         Flow       Avg       Max       Total
                         Freq      Flow      Flow      Volume
  Outfall Node           Pcnt       LPS       LPS    10^6 ltr
  -----------------------------------------------------------
  CC-1                   6.35    683.00    683.00       0.822
  CC-2                   0.00      0.00      0.00       0.000
  JK-1                  84.71    192.16   1000.00       2.424
  JK-2                  24.52    468.59   1000.00       1.468
  WSC                   99.96    768.92   1473.01      13.553
  -----------------------------------------------------------
  System                43.11   2112.67   1473.01      18.266
  
  
  ********************
  Link Flow Summary
  ********************
  
  -----------------------------------------------------------------------------
                                 Maximum  Time of Max   Maximum    Max/    Max/
                                  |Flow|   Occurrence   |Veloc|    Full    Full
  Link                 Type          LPS  days hr:min     m/sec    Flow   Depth
  -----------------------------------------------------------------------------
  1                    CONDUIT   1473.01     0  02:13      3.68    0.51    0.51
  HS02004478WS02006287 CONDUIT   2245.07     0  02:10      2.61    0.63    1.00
  HS02004479HS02004480 CONDUIT    431.01     0  02:06      0.62    0.42    1.00
  HS02004480HS02004478 CONDUIT   2130.59     0  02:04      3.04    8.97    1.00
  HS02004770HS02004777 CONDUIT    786.17     0  02:03      1.12    1.44    1.00
  HS02004777HS02004785 CONDUIT    788.55     0  02:02      1.20    0.97    1.00
  HS02004785HS02004788 CONDUIT    742.01     0  02:03      1.35    5.59    1.00
  HS02004788HS02004792 CONDUIT    821.67     0  02:03      1.45    0.54    1.00
  HS02004792HS02004799 CONDUIT   1580.86     0  02:03      2.26    0.97    1.00
  HS02004799HS02004480 CONDUIT   1749.22     0  02:04      2.50    2.21    1.00
  HS02004802HS02004478 CONDUIT    725.13     0  02:10      1.04    0.64    1.00
  HS02004807HS02004802 CONDUIT    724.91     0  02:10      1.04    1.38    1.00
  HS02004817HS02004807 CONDUIT    447.42     0  02:03      0.64    0.26    1.00
  HS02004817HS02004824 CONDUIT    446.46     0  02:03      0.64    0.20    1.00
  HS02004824HS02004830 CONDUIT    678.80     0  02:04      0.99    0.89    1.00
  HS02004830HS02004837 CONDUIT    692.43     0  02:04      1.07    0.69    1.00
  HS02004837HS02004842 CONDUIT    876.41     0  02:04      1.25    0.52    1.00
  HS02004842HS02004848 CONDUIT    876.12     0  02:04      1.40    0.51    1.00
  HS02004848HS02004852 CONDUIT   1035.14     0  02:05      1.63    1.17    1.00
  HS02004852HS02004856 CONDUIT    999.49     0  02:05      1.47    1.14    1.00
  HS02004856HS02004862 CONDUIT   1073.33     0  02:05      1.70    1.07    1.00
  HS02004862HS02004870 CONDUIT   1179.38     0  02:05      1.88    1.27    1.00
  HS02004870HS02004876 CONDUIT   1153.21     0  02:06      1.71    0.77    1.00
  HS02004876HS02004881 CONDUIT   1290.77     0  02:06      2.09   13.73    1.00
  HS02004881HS02006253 CONDUIT   1371.52     0  02:06      2.56    0.27    1.00
  HS02004901HS02004770 CONDUIT    265.16     0  02:15      0.38    1.00    1.00
  WS02001211WS02001212 CONDUIT    211.23     0  02:45      0.54    0.16    0.68
  WS02001212WS02001213 CONDUIT    215.18     0  02:44      1.03    0.33    0.55
  WS02001213WS02003059 CONDUIT    221.84     0  02:44      0.47    0.37    0.88
  WS02003059WS02003060 CONDUIT    226.43     0  02:43      0.67    0.15    0.80
  WS02003060WS02003069 CONDUIT   1471.21     0  02:11      2.07    0.58    0.60
  WS02003066WSF200     CONDUIT   1263.85     0  02:10      3.32    0.21    0.38
  WS02003067WS02003066 CONDUIT   1263.81     0  02:10      1.97    0.41    0.55
  WS02003069WS02003072 CONDUIT   1470.98     0  02:12      1.88    0.71    0.65
  WS02003072WS02003073 CONDUIT   1470.87     0  02:12      2.03    3.18    0.61
  WS02004138WS02004139 CONDUIT    192.44     0  00:29      2.15    0.04    0.41
  WS02004139WS02001211 CONDUIT    222.43     0  02:02      0.54    0.28    0.60
  WS02004401WS02004402 CONDUIT   1264.01     0  02:09      1.61    1.52    1.00
  WS02004402WS02004403 CONDUIT   1264.41     0  02:10      1.61    1.82    1.00
  WS02004403WS02004404 CONDUIT   1264.22     0  02:09      1.61    0.91    1.00
  WS02004404WS02004405 CONDUIT   1264.62     0  02:10      1.61   12.39    1.00
  WS02004405WS02004406 CONDUIT   1264.78     0  02:10      1.61    2.49    1.00
  WS02004406WS02004407 CONDUIT   1264.42     0  02:10      1.78    0.57    0.93
  WS02004407WS02004409 CONDUIT   1263.09     0  02:10      1.97    0.45    0.93
  WS02004409WS02004410 CONDUIT   1262.91     0  02:10      1.61    1.63    1.00
  WS02004410WS02004411 CONDUIT   1263.20     0  02:10      1.61    1.73    1.00
  WS02004411WS02004412 CONDUIT   1263.01     0  02:10      1.61    1.79    1.00
  WS02004412WS02004413 CONDUIT   1262.92     0  02:10      1.61    0.85    1.00
  WS02004413WS02003067 CONDUIT   1263.04     0  02:10      1.97    0.54    0.76
  WS02006109WS02006110 CONDUIT   1122.80     0  02:19      2.23    2.16    1.00
  WS02006110WS02006113 CONDUIT   1122.49     0  02:19      2.23    1.02    1.00
  WS02006111WS02006112 CONDUIT   1122.68     0  02:19      2.23    0.53    1.00
  WS02006112WS02006115 CONDUIT   1264.04     0  02:10      1.61    0.75    1.00
  WS02006113WS02006111 CONDUIT   1122.50     0  02:19      2.66    1.35    1.00
  WS02006115WS02006116 CONDUIT   1264.15     0  02:10      1.61    1.62    1.00
  WS02006116WS02004401 CONDUIT   1264.28     0  02:09      1.61    1.74    1.00
  WS02006228WS02006109 CONDUIT   1258.27     0  02:09      2.50    5.50    1.00
  WS02006229WS02006228 CONDUIT   1258.60     0  02:09      2.50    4.17    1.00
  WS02006230WS02006229 CONDUIT    986.74     0  02:10      2.56   21.96    1.00
  WS02006231WS02006230 CONDUIT    453.28     0  02:15      1.24    6.88    1.00
  WS02006232WS02006231 CONDUIT    453.42     0  02:15      1.18    0.95    1.00
  WS02006234WS02006232 CONDUIT    453.10     0  02:06      1.39    0.92    1.00
  WS02006235WS02006234 CONDUIT    418.86     0  03:32      1.09    4.42    1.00
  WS02006238WS02006235 CONDUIT    418.72     0  03:32      1.46    0.93    1.00
  WS02006239WS02006238 CONDUIT    418.61     0  03:32      1.09    1.34    1.00
  WS02006240WS02006239 CONDUIT    418.57     0  03:32      1.09    1.32    1.00
  WS02006242WS02006240 CONDUIT    418.51     0  03:32      1.09    1.66    1.00
  WS02006243WS02006242 CONDUIT    418.47     0  03:32      1.13    0.89    1.00
  WS02006245WS02006243 CONDUIT    458.39     0  01:53      1.46    1.36    1.00
  WS02006247WS02006245 CONDUIT    498.63     0  01:53      1.47    3.95    1.00
  WS02006248WS02006247 CONDUIT    508.06     0  01:53      1.41    1.11    1.00
  WS02006249WS02006248 CONDUIT    529.26     0  01:52      1.48    2.90    1.00
  WS02006251WS02006249 CONDUIT   1340.77     0  02:06      3.48    3.87    1.00
  WS02006252WS02006251 CONDUIT    409.78     0  01:54      3.26    1.50    1.00
  WS02006253WS02006251 CONDUIT   1395.07     0  02:06      3.62    4.18    1.00
  WS02006256WS02006235 CONDUIT    288.92     0  00:00      4.23    3.06    1.00
  WS02006280WS02006229 CONDUIT   2246.06     0  02:09      4.29    0.48    1.00
  WS02006284WS02006280 CONDUIT   2245.16     0  02:09      2.96    0.94    1.00
  WS02006287WS02006284 CONDUIT   2245.14     0  02:10      2.86    1.04    1.00
  WSF200WS02003060     CONDUIT   1263.71     0  02:10      2.46    0.28    0.49
  YS02001580YS02001583 CONDUIT    136.14     0  02:03      0.82    0.53    1.00
  YS02001583YS02001586 CONDUIT    177.11     0  02:03      0.83    0.27    1.00
  YS02001586YS02001590 CONDUIT    317.86     0  02:12      1.25    0.56    1.00
  YS02001590YS02001593 CONDUIT    318.06     0  02:17      1.12    2.00    1.00
  YS02001593YS02001596 CONDUIT    317.92     0  02:18      1.60    0.50    1.00
  YS02001596YS02001600 CONDUIT    317.89     0  02:18      1.12    0.62    1.00
  YS02001600YS02001601 CONDUIT    317.83     0  02:09      1.12    0.55    1.00
  YS02001601YS02001602 CONDUIT    549.98     0  02:02      1.95    1.99    1.00
  YS02001602YS02001605 CONDUIT    550.64     0  02:02      1.95   11.65    1.00
  YS02001605YS02001607 CONDUIT    551.24     0  02:02      1.95    3.02    1.00
  YS02001607YS02001610 CONDUIT    543.01     0  02:03      0.69    0.52    1.00
  YS02001610YS02001613 CONDUIT    550.23     0  02:03      0.70    0.63    1.00
  YS02001613YS02001616 CONDUIT    562.81     0  02:03      0.72    0.48    1.00
  YS02001616YS02001619 CONDUIT    522.27     0  02:03      0.68    0.91    1.00
  YS02001619YS02001622 CONDUIT    964.53     0  02:03      1.23    1.42    1.00
  YS02001622YS02001625 CONDUIT    949.86     0  02:03      1.21    0.51    1.00
  YS02001625YS02001629 CONDUIT    952.87     0  02:03      1.21    0.45    1.00
  YS02001629YS02163301 CONDUIT    916.51     0  02:05      1.17    1.13    1.00
  YS02001633YS02163601 CONDUIT   1355.87     0  02:05      1.73    1.42    1.00
  YS02001641YS02001644 CONDUIT   1355.24     0  02:05      1.73    4.38    1.00
  YS02001644YS02001647 CONDUIT   1752.74     0  02:05      2.27    1.03    1.00
  YS02001647YS02001649 CONDUIT   1763.73     0  02:05      2.32    0.93    1.00
  YS02001649YS02001757 CONDUIT   1996.14     0  02:05      2.54    1.21    1.00
  YS02001652YS02001649 CONDUIT    558.96     0  02:08      0.77    0.28    1.00
  YS02001655YS02001652 CONDUIT    558.64     0  02:08      1.39    0.27    1.00
  YS02001658YS02001655 CONDUIT    558.41     0  02:08      1.99    0.24    1.00
  YS02001661YS02001658 CONDUIT    652.13     0  02:07      2.28    0.26    0.94
  YS02001664YS02001661 CONDUIT    646.91     0  02:08      2.21    0.20    0.63
  YS02001745YS02001748 CONDUIT    560.09     0  02:08      2.15    0.22    0.80
  YS02001748YS02001751 CONDUIT    354.39     0  02:08      1.75    0.18    1.00
  YS02001751YS02001754 CONDUIT    354.79     0  02:10      1.54    0.17    1.00
  YS02001754YS02001757 CONDUIT    355.53     0  02:10      0.53    0.14    1.00
  YS02001757CaochengTiaoxuchi CONDUIT   3057.83     0  02:08      3.89    1.32    1.00
  YS02001759YS02001757 CONDUIT   1147.50     0  02:10      1.46    0.82    1.00
  YS02001762YS02001759 CONDUIT    682.25     0  02:10      0.87    0.79    1.00
  YS02001765YS02001762 CONDUIT    680.99     0  02:10      0.87    0.64    1.00
  YS02001767YS02001765 CONDUIT    679.68     0  02:10      0.87    0.85    1.00
  YS02001770YS02001767 CONDUIT    678.11     0  02:10      0.86    2.69    1.00
  YS02001774YS02001770 CONDUIT    411.35     0  02:05      0.52    0.26    1.00
  YS02001779YS02001774 CONDUIT    418.92     0  02:05      0.54    0.21    1.00
  YS02001783YS02001784 CONDUIT   1152.30     0  02:08      2.29    1.59    1.00
  YS02001784YS02001785 CONDUIT   1153.07     0  02:08      2.29    2.68    1.00
  YS02001786YS02001788 CONDUIT   1152.76     0  02:08      2.46    2.22    0.89
  YS02001788YS02001790 CONDUIT   1164.59     0  02:08      2.69    0.86    0.83
  YS02001790YS02001791 CONDUIT   1275.90     0  02:08      3.41    1.39    0.70
  YS02001791YS02001793 CONDUIT   1230.57     0  02:09      6.75    0.53    0.43
  YS02001793JiankangQianchi CONDUIT   1273.43     0  02:09     24.77    0.10    0.60
  YS02001882YS02001884 CONDUIT     50.09     0  02:04      0.09    0.06    1.00
  YS02001884YS02001887 CONDUIT     88.20     0  02:03      0.11    0.12    1.00
  YS02001887YS02001890 CONDUIT    497.93     0  02:09      0.63    0.85    1.00
  YS02001890YS02001895 CONDUIT    497.52     0  02:10      0.63    0.23    1.00
  YS02001895YS02001898 CONDUIT    497.80     0  02:10      0.63    0.86    1.00
  YS02001898YS02001901 CONDUIT    497.76     0  02:10      0.63    0.32    1.00
  YS02001901YS02001904 CONDUIT    497.69     0  02:10      0.63    0.77    1.00
  YS02001904YS02001907 CONDUIT    497.77     0  02:10      0.63    0.17    1.00
  YS02001907YS02006553 CONDUIT    789.70     0  02:18      0.88    0.93    1.00
  YS02001910YS02001907 CONDUIT    965.42     0  02:07      1.23    0.54    1.00
  YS02001915YS02001910 CONDUIT    965.48     0  02:07      1.23    0.48    1.00
  YS02001918YS02001915 CONDUIT    438.22     0  02:07      0.56    0.24    1.00
  YS02001920YS02001918 CONDUIT    437.99     0  02:07      0.66    0.42    1.00
  YS02001923YS02001920 CONDUIT    434.89     0  02:07      0.71    0.20    1.00
  YS02001926YS02001923 CONDUIT    384.35     0  02:06      0.96    0.55    1.00
  YS02001929YS02001926 CONDUIT    378.85     0  02:07      1.12    0.18    1.00
  YS02006553YS02006556 CONDUIT    790.13     0  02:19      1.01    0.68    1.00
  YS02006556YS02006558 CONDUIT    791.85     0  02:19      1.01    0.63    1.00
  YS02006558YS02006561 CONDUIT   1170.85     0  02:05      4.14    2.59    1.00
  YS02006561YS02001783 CONDUIT   1152.09     0  02:08      2.29    0.60    1.00
  YS02163301YS02001633 CONDUIT    916.69     0  02:05      1.17    0.86    1.00
  YS02163601YS02164001 CONDUIT   1355.47     0  02:05      1.73    1.20    1.00
  YS02164001YS02001641 CONDUIT   1354.93     0  02:05      1.73    1.85    1.00
  YSB1154YSB6556       CONDUIT    278.44     0  02:10      0.72    0.50    1.00
  YSB1171HS02004479    CONDUIT    431.53     0  02:06      0.86    0.29    1.00
  YSB1174YSB1171       CONDUIT    232.94     0  02:09      0.61    0.36    1.00
  YSB6556YSB1171       CONDUIT    278.57     0  02:09      0.72    0.29    1.00
  CC-R1                PUMP       683.00     0  02:10              1.00
  CC-R2                PUMP         0.00     0  00:00              0.00
  CC-S1                PUMP       200.00     0  01:50              1.00
  CC-S2                PUMP       200.00     0  01:50              1.00
  JK-R1                PUMP      1000.00     0  00:00              1.00
  JK-R2                PUMP      1000.00     0  02:00              1.00
  JK-S                 PUMP       300.00     0  00:00              1.00
  XR-1                 PUMP        95.00     0  00:10              1.00
  XR-2                 PUMP        95.00     0  00:29              1.00
  XR-3                 PUMP         0.00     0  00:00              0.00
  XR-4                 PUMP         0.00     0  00:00              0.00
  
  
  ***************************
  Flow Classification Summary
  ***************************
  
  -------------------------------------------------------------------------------------
                      Adjusted    ---------- Fraction of Time in Flow Class ---------- 
                       /Actual         Up    Down  Sub   Sup   Up    Down  Norm  Inlet 
  Conduit               Length    Dry  Dry   Dry   Crit  Crit  Crit  Crit  Ltd   Ctrl  
  -------------------------------------------------------------------------------------
  1                       1.00   0.00  0.00  0.00  0.00  1.00  0.00  0.00  0.40  0.00
  HS02004478WS02006287    1.00   0.07  0.00  0.00  0.65  0.28  0.00  0.00  0.50  0.00
  HS02004479HS02004480    1.00   0.02  0.00  0.00  0.98  0.00  0.00  0.00  0.16  0.00
  HS02004480HS02004478    1.00   0.06  0.00  0.00  0.57  0.00  0.00  0.37  0.00  0.00
  HS02004770HS02004777    1.00   0.00  0.05  0.00  0.95  0.00  0.00  0.00  0.05  0.00
  HS02004777HS02004785    1.00   0.00  0.00  0.00  1.00  0.00  0.00  0.00  0.19  0.00
  HS02004785HS02004788    1.00   0.00  0.00  0.00  1.00  0.00  0.00  0.00  0.00  0.00
  HS02004788HS02004792    1.00   0.00  0.00  0.00  0.99  0.01  0.00  0.00  0.90  0.00
  HS02004792HS02004799    1.00   0.00  0.00  0.00  0.99  0.01  0.00  0.00  0.86  0.00
  HS02004799HS02004480    1.00   0.00  0.02  0.00  0.93  0.00  0.05  0.00  0.00  0.00
  HS02004802HS02004478    1.00   0.06  0.00  0.00  0.94  0.00  0.00  0.00  0.03  0.00
  HS02004807HS02004802    1.00   0.05  0.00  0.00  0.94  0.00  0.00  0.01  0.01  0.00
  HS02004817HS02004807    1.00   0.00  0.05  0.00  0.95  0.00  0.00  0.00  0.01  0.00
  HS02004817HS02004824    1.00   0.00  0.00  0.00  1.00  0.00  0.00  0.00  0.82  0.00
  HS02004824HS02004830    1.00   0.00  0.00  0.00  1.00  0.00  0.00  0.00  0.01  0.00
  HS02004830HS02004837    1.00   0.00  0.00  0.00  1.00  0.00  0.00  0.00  0.88  0.00
  HS02004837HS02004842    1.00   0.00  0.00  0.00  0.99  0.01  0.00  0.00  0.14  0.00
  HS02004842HS02004848    1.00   0.00  0.05  0.00  0.95  0.00  0.00  0.00  0.46  0.00
  HS02004848HS02004852    1.00   0.05  0.00  0.00  0.95  0.00  0.00  0.00  0.61  0.00
  HS02004852HS02004856    1.00   0.05  0.01  0.00  0.94  0.00  0.00  0.00  0.62  0.00
  HS02004856HS02004862    1.00   0.00  0.08  0.00  0.92  0.00  0.00  0.00  0.66  0.00
  HS02004862HS02004870    1.00   0.00  0.00  0.00  1.00  0.00  0.00  0.00  0.06  0.00
  HS02004870HS02004876    1.00   0.01  0.00  0.00  0.99  0.00  0.00  0.00  0.85  0.00
  HS02004876HS02004881    1.00   0.01  0.00  0.00  0.78  0.21  0.00  0.00  0.00  0.00
  HS02004881HS02006253    1.00   0.03  0.00  0.00  0.86  0.00  0.00  0.11  0.61  0.00
  HS02004901HS02004770    1.00   0.05  0.00  0.00  0.95  0.00  0.00  0.00  0.01  0.00
  WS02001211WS02001212    1.00   0.00  0.02  0.00  0.98  0.00  0.00  0.00  0.00  0.00
  WS02001212WS02001213    1.00   0.02  0.00  0.00  0.84  0.00  0.14  0.00  0.00  0.00
  WS02001213WS02003059    1.00   0.00  0.01  0.00  0.99  0.00  0.00  0.00  0.00  0.00
  WS02003059WS02003060    1.00   0.00  0.00  0.00  1.00  0.00  0.00  0.00  0.04  0.00
  WS02003060WS02003069    1.00   0.00  0.00  0.00  0.98  0.02  0.00  0.00  0.25  0.00
  WS02003066WSF200        1.00   0.14  0.00  0.00  0.00  0.86  0.00  0.00  0.36  0.00
  WS02003067WS02003066    1.00   0.13  0.01  0.00  0.86  0.00  0.00  0.00  0.00  0.00
  WS02003069WS02003072    1.00   0.00  0.00  0.00  1.00  0.00  0.00  0.00  0.29  0.00
  WS02003072WS02003073    1.00   0.00  0.00  0.00  0.00  0.00  0.00  1.00  0.00  0.00
  WS02004138WS02004139    1.00   0.01  0.00  0.00  0.98  0.00  0.00  0.00  0.97  0.00
  WS02004139WS02001211    1.00   0.00  0.01  0.00  0.99  0.00  0.00  0.00  0.01  0.00
  WS02004401WS02004402    1.00   0.02  0.00  0.00  0.98  0.00  0.00  0.00  0.04  0.00
  WS02004402WS02004403    1.00   0.03  0.00  0.00  0.97  0.00  0.00  0.00  0.00  0.00
  WS02004403WS02004404    1.00   0.00  0.03  0.00  0.97  0.00  0.00  0.00  0.04  0.00
  WS02004404WS02004405    1.00   0.00  0.00  0.00  1.00  0.00  0.00  0.00  0.00  0.00
  WS02004405WS02004406    1.00   0.00  0.00  0.00  1.00  0.00  0.00  0.00  0.04  0.00
  WS02004406WS02004407    1.00   0.00  0.09  0.00  0.90  0.00  0.00  0.00  0.00  0.00
  WS02004407WS02004409    1.00   0.10  0.00  0.00  0.88  0.02  0.00  0.00  0.60  0.00
  WS02004409WS02004410    1.00   0.10  0.00  0.00  0.90  0.00  0.00  0.00  0.00  0.00
  WS02004410WS02004411    1.00   0.10  0.00  0.00  0.90  0.00  0.00  0.00  0.00  0.00
  WS02004411WS02004412    1.00   0.10  0.00  0.00  0.90  0.00  0.00  0.00  0.00  0.00
  WS02004412WS02004413    1.00   0.10  0.00  0.00  0.89  0.01  0.00  0.00  0.00  0.00
  WS02004413WS02003067    1.00   0.11  0.02  0.00  0.00  0.00  0.87  0.00  0.00  0.00
  WS02006109WS02006110    1.00   0.00  0.01  0.00  0.99  0.00  0.00  0.00  0.00  0.00
  WS02006110WS02006113    1.00   0.01  0.01  0.00  0.99  0.00  0.00  0.00  0.00  0.00
  WS02006111WS02006112    1.00   0.01  0.00  0.00  0.98  0.00  0.00  0.00  0.74  0.00
  WS02006112WS02006115    1.00   0.02  0.01  0.00  0.97  0.00  0.00  0.00  0.00  0.00
  WS02006113WS02006111    1.00   0.01  0.00  0.00  0.28  0.71  0.00  0.00  0.14  0.00
  WS02006115WS02006116    1.00   0.02  0.00  0.00  0.94  0.00  0.00  0.03  0.01  0.00
  WS02006116WS02004401    1.00   0.02  0.00  0.00  0.98  0.00  0.00  0.00  0.01  0.00
  WS02006228WS02006109    1.00   0.00  0.00  0.00  1.00  0.00  0.00  0.00  0.00  0.00
  WS02006229WS02006228    1.00   0.00  0.00  0.00  0.99  0.00  0.00  0.01  0.00  0.00
  WS02006230WS02006229    1.00   0.00  0.00  0.00  0.99  0.00  0.00  0.01  0.02  0.00
  WS02006231WS02006230    1.00   0.00  0.00  0.00  0.90  0.00  0.09  0.00  0.00  0.00
  WS02006232WS02006231    1.00   0.00  0.00  0.00  0.99  0.00  0.00  0.00  0.00  0.00
  WS02006234WS02006232    1.00   0.00  0.00  0.00  1.00  0.00  0.00  0.00  0.17  0.00
  WS02006235WS02006234    1.00   0.00  0.00  0.00  0.92  0.00  0.08  0.00  0.00  0.00
  WS02006238WS02006235    1.00   0.00  0.00  0.00  1.00  0.00  0.00  0.00  0.00  0.00
  WS02006239WS02006238    1.00   0.00  0.00  0.00  1.00  0.00  0.00  0.00  0.08  0.00
  WS02006240WS02006239    1.00   0.00  0.00  0.00  0.90  0.00  0.00  0.10  0.01  0.00
  WS02006242WS02006240    1.00   0.00  0.00  0.00  1.00  0.00  0.00  0.00  0.00  0.00
  WS02006243WS02006242    1.00   0.01  0.00  0.00  0.99  0.00  0.00  0.00  0.27  0.00
  WS02006245WS02006243    1.00   0.01  0.01  0.00  0.89  0.00  0.00  0.09  0.00  0.00
  WS02006247WS02006245    1.00   0.01  0.00  0.00  0.95  0.00  0.00  0.04  0.00  0.00
  WS02006248WS02006247    1.00   0.01  0.00  0.00  0.97  0.00  0.00  0.02  0.11  0.00
  WS02006249WS02006248    1.00   0.00  0.01  0.00  0.89  0.00  0.10  0.00  0.00  0.00
  WS02006251WS02006249    1.00   0.00  0.00  0.00  1.00  0.00  0.00  0.00  0.25  0.00
  WS02006252WS02006251    1.00   0.14  0.00  0.00  0.42  0.00  0.44  0.00  0.00  0.00
  WS02006253WS02006251    1.00   0.03  0.02  0.00  0.95  0.00  0.01  0.00  0.00  0.00
  WS02006256WS02006235    1.00   0.00  0.00  0.00  1.00  0.00  0.00  0.00  0.00  0.00
  WS02006280WS02006229    1.00   0.06  0.00  0.00  0.20  0.07  0.00  0.68  0.01  0.00
  WS02006284WS02006280    1.00   0.06  0.00  0.00  0.15  0.02  0.00  0.77  0.00  0.00
  WS02006287WS02006284    1.00   0.04  0.03  0.00  0.53  0.40  0.00  0.00  0.59  0.00
  WSF200WS02003060        1.00   0.00  0.14  0.00  0.01  0.85  0.00  0.00  0.01  0.00
  YS02001580YS02001583    1.00   0.18  0.49  0.00  0.33  0.00  0.00  0.00  0.56  0.00
  YS02001583YS02001586    1.00   0.19  0.41  0.00  0.40  0.00  0.00  0.00  0.56  0.00
  YS02001586YS02001590    1.00   0.05  0.00  0.00  0.59  0.03  0.00  0.32  0.46  0.00
  YS02001590YS02001593    1.00   0.05  0.00  0.00  0.20  0.00  0.74  0.00  0.00  0.00
  YS02001593YS02001596    1.00   0.06  0.00  0.00  0.26  0.02  0.00  0.66  0.06  0.00
  YS02001596YS02001600    1.00   0.06  0.00  0.00  0.51  0.01  0.00  0.43  0.14  0.00
  YS02001600YS02001601    1.00   0.06  0.00  0.00  0.94  0.00  0.00  0.00  0.33  0.00
  YS02001601YS02001602    1.00   0.05  0.01  0.00  0.94  0.00  0.00  0.00  0.00  0.00
  YS02001602YS02001605    1.00   0.06  0.00  0.00  0.94  0.00  0.00  0.00  0.00  0.00
  YS02001605YS02001607    1.00   0.06  0.00  0.00  0.94  0.00  0.00  0.00  0.00  0.00
  YS02001607YS02001610    1.00   0.06  0.00  0.00  0.94  0.00  0.00  0.00  0.03  0.00
  YS02001610YS02001613    1.00   0.06  0.00  0.00  0.94  0.00  0.00  0.00  0.02  0.00
  YS02001613YS02001616    1.00   0.05  0.00  0.00  0.95  0.00  0.00  0.00  0.01  0.00
  YS02001616YS02001619    1.00   0.05  0.00  0.00  0.95  0.00  0.00  0.00  0.00  0.00
  YS02001619YS02001622    1.00   0.05  0.00  0.00  0.95  0.00  0.00  0.00  0.05  0.00
  YS02001622YS02001625    1.00   0.05  0.00  0.00  0.95  0.00  0.00  0.00  0.09  0.00
  YS02001625YS02001629    1.00   0.05  0.03  0.00  0.55  0.00  0.36  0.00  0.00  0.00
  YS02001629YS02163301    1.00   0.07  0.01  0.00  0.92  0.00  0.00  0.00  0.00  0.00
  YS02001633YS02163601    1.00   0.00  0.01  0.00  0.99  0.00  0.00  0.00  0.21  0.00
  YS02001641YS02001644    1.00   0.00  0.01  0.00  0.99  0.00  0.00  0.00  0.00  0.00
  YS02001644YS02001647    1.00   0.00  0.09  0.00  0.91  0.00  0.00  0.00  0.00  0.00
  YS02001647YS02001649    1.00   0.00  0.08  0.00  0.91  0.01  0.00  0.00  0.07  0.00
  YS02001649YS02001757    1.00   0.00  0.00  0.00  0.94  0.05  0.00  0.00  0.28  0.00
  YS02001652YS02001649    1.00   0.00  0.00  0.00  0.97  0.03  0.00  0.00  0.27  0.00
  YS02001655YS02001652    1.00   0.00  0.00  0.00  0.79  0.01  0.00  0.20  0.10  0.00
  YS02001658YS02001655    1.00   0.00  0.06  0.00  0.81  0.13  0.00  0.00  0.29  0.00
  YS02001661YS02001658    1.00   0.06  0.00  0.00  0.80  0.14  0.00  0.00  0.44  0.00
  YS02001664YS02001661    1.00   0.05  0.00  0.00  0.87  0.08  0.00  0.00  0.82  0.00
  YS02001745YS02001748    1.00   0.00  0.00  0.00  0.46  0.00  0.00  0.54  0.19  0.00
  YS02001748YS02001751    1.00   0.00  0.00  0.00  0.88  0.12  0.00  0.00  0.40  0.00
  YS02001751YS02001754    1.00   0.00  0.00  0.00  0.75  0.01  0.00  0.24  0.10  0.00
  YS02001754YS02001757    1.00   0.00  0.00  0.00  1.00  0.00  0.00  0.00  0.35  0.00
  YS02001757CaochengTiaoxuchi    1.00   0.00  0.00  0.00  1.00  0.00  0.00  0.00  0.13  0.00
  YS02001759YS02001757    1.00   0.00  0.00  0.00  1.00  0.00  0.00  0.00  0.23  0.00
  YS02001762YS02001759    1.00   0.00  0.00  0.00  1.00  0.00  0.00  0.00  0.07  0.00
  YS02001765YS02001762    1.00   0.00  0.00  0.00  1.00  0.00  0.00  0.00  0.24  0.00
  YS02001767YS02001765    1.00   0.00  0.00  0.00  1.00  0.00  0.00  0.00  0.00  0.00
  YS02001770YS02001767    1.00   0.00  0.00  0.00  1.00  0.00  0.00  0.00  0.00  0.00
  YS02001774YS02001770    1.00   0.00  0.06  0.00  0.94  0.00  0.00  0.00  0.06  0.00
  YS02001779YS02001774    1.00   0.00  0.00  0.00  1.00  0.00  0.00  0.00  0.32  0.00
  YS02001783YS02001784    1.00   0.00  0.09  0.00  0.91  0.00  0.00  0.00  0.42  0.00
  YS02001784YS02001785    1.00   0.00  0.00  0.00  1.00  0.00  0.00  0.00  0.26  0.00
  YS02001786YS02001788    1.00   0.00  0.00  0.00  0.65  0.35  0.00  0.00  0.00  0.00
  YS02001788YS02001790    1.00   0.00  0.00  0.00  0.14  0.86  0.00  0.00  0.80  0.00
  YS02001790YS02001791    1.00   0.00  0.00  0.00  0.01  0.99  0.00  0.00  0.18  0.00
  YS02001791YS02001793    1.00   0.00  0.00  0.00  0.00  1.00  0.00  0.00  0.01  0.00
  YS02001793JiankangQianchi    1.00   0.00  0.00  0.00  0.12  0.88  0.00  0.00  0.12  0.00
  YS02001882YS02001884    1.00   0.07  0.01  0.00  0.93  0.00  0.00  0.00  0.00  0.00
  YS02001884YS02001887    1.00   0.03  0.02  0.00  0.95  0.00  0.00  0.00  0.00  0.00
  YS02001887YS02001890    1.00   0.00  0.00  0.00  0.98  0.00  0.02  0.00  0.00  0.00
  YS02001890YS02001895    1.00   0.00  0.07  0.00  0.92  0.00  0.00  0.00  0.00  0.00
  YS02001895YS02001898    1.00   0.08  0.00  0.00  0.90  0.00  0.02  0.00  0.00  0.00
  YS02001898YS02001901    1.00   0.08  0.00  0.00  0.92  0.00  0.00  0.00  0.02  0.00
  YS02001901YS02001904    1.00   0.08  0.00  0.00  0.92  0.00  0.00  0.00  0.00  0.00
  YS02001904YS02001907    1.00   0.00  0.07  0.00  0.92  0.00  0.00  0.00  0.00  0.00
  YS02001907YS02006553    1.00   0.00  0.01  0.00  0.98  0.00  0.00  0.00  0.00  0.00
  YS02001910YS02001907    1.00   0.00  0.00  0.00  0.98  0.00  0.00  0.02  0.17  0.00
  YS02001915YS02001910    1.00   0.00  0.00  0.00  0.99  0.01  0.00  0.00  0.24  0.00
  YS02001918YS02001915    1.00   0.00  0.01  0.00  0.99  0.01  0.00  0.00  0.70  0.00
  YS02001920YS02001918    1.00   0.00  0.01  0.00  0.99  0.00  0.00  0.00  0.00  0.00
  YS02001923YS02001920    1.00   0.00  0.00  0.00  1.00  0.00  0.00  0.00  0.93  0.00
  YS02001926YS02001923    1.00   0.00  0.03  0.00  0.08  0.00  0.89  0.00  0.00  0.00
  YS02001929YS02001926    1.00   0.00  0.05  0.00  0.95  0.00  0.00  0.00  0.78  0.00
  YS02006553YS02006556    1.00   0.01  0.00  0.00  0.99  0.00  0.00  0.00  0.04  0.00
  YS02006556YS02006558    1.00   0.00  0.00  0.00  1.00  0.00  0.00  0.00  0.00  0.00
  YS02006558YS02006561    1.00   0.09  0.00  0.00  0.07  0.84  0.00  0.00  0.24  0.00
  YS02006561YS02001783    1.00   0.09  0.00  0.00  0.13  0.78  0.00  0.00  0.60  0.00
  YS02163301YS02001633    1.00   0.00  0.07  0.00  0.93  0.00  0.00  0.00  0.00  0.00
  YS02163601YS02164001    1.00   0.00  0.04  0.00  0.96  0.00  0.00  0.00  0.00  0.00
  YS02164001YS02001641    1.00   0.01  0.03  0.00  0.96  0.00  0.00  0.00  0.08  0.00
  YSB1154YSB6556          1.00   0.05  0.00  0.00  0.95  0.00  0.00  0.00  0.03  0.00
  YSB1171HS02004479       1.00   0.02  0.00  0.00  0.97  0.00  0.00  0.00  0.14  0.00
  YSB1174YSB1171          1.00   0.03  0.02  0.00  0.96  0.00  0.00  0.00  0.00  0.00
  YSB6556YSB1171          1.00   0.02  0.03  0.00  0.95  0.00  0.00  0.00  0.00  0.00
  
  
  *************************
  Conduit Surcharge Summary
  *************************
  
  ----------------------------------------------------------------------------
                                                           Hours        Hours 
                         --------- Hours Full --------   Above Full   Capacity
  Conduit                Both Ends  Upstream  Dnstream   Normal Flow   Limited
  ----------------------------------------------------------------------------
  HS02004478WS02006287        0.31      0.31      0.45      0.01         0.01
  HS02004479HS02004480        0.45      0.45      0.47      0.01         0.01
  HS02004480HS02004478        0.40      0.45      0.40      1.34         0.40
  HS02004770HS02004777        0.37      0.38      0.38      0.08         0.06
  HS02004777HS02004785        0.33      0.33      0.38      0.01         0.01
  HS02004785HS02004788        0.32      0.33      0.32      1.04         0.31
  HS02004788HS02004792        0.32      0.32      0.42      0.01         0.01
  HS02004792HS02004799        0.42      0.42      0.52      0.01         0.01
  HS02004799HS02004480        0.45      0.45      0.52      0.58         0.01
  HS02004802HS02004478        0.41      0.41      0.46      0.01         0.01
  HS02004807HS02004802        0.44      0.44      0.45      0.09         0.09
  HS02004817HS02004807        0.44      0.44      0.88      0.01         0.01
  HS02004817HS02004824        0.33      0.33      0.88      0.01         0.01
  HS02004824HS02004830        0.30      0.30      0.33      0.01         0.01
  HS02004830HS02004837        0.27      0.27      0.30      0.01         0.01
  HS02004837HS02004842        0.27      0.27      0.38      0.01         0.01
  HS02004842HS02004848        0.24      0.24      0.38      0.01         0.01
  HS02004848HS02004852        0.24      0.24      0.26      0.02         0.01
  HS02004852HS02004856        0.26      0.26      0.28      0.02         0.01
  HS02004856HS02004862        0.25      0.25      0.28      0.01         0.01
  HS02004862HS02004870        0.28      0.28      0.30      0.02         0.01
  HS02004870HS02004876        0.30      0.30      0.36      0.01         0.01
  HS02004876HS02004881        0.34      0.36      0.34      1.07         0.34
  HS02004881HS02006253        0.34      0.34      1.91      0.01         0.01
  HS02004901HS02004770        0.38      0.38      0.38      0.01         0.01
  WS02003072WS02003073        0.01      0.01      0.01      4.05         0.01
  WS02004401WS02004402        1.22      1.22      1.24      1.09         1.03
  WS02004402WS02004403        1.24      1.24      1.24      1.21         1.19
  WS02004403WS02004404        1.24      1.24      1.41      0.01         0.01
  WS02004404WS02004405        1.37      1.41      1.37      4.27         1.37
  WS02004405WS02004406        1.34      1.37      1.34      1.78         1.34
  WS02004406WS02004407        0.01      0.01      1.34      0.01         0.01
  WS02004407WS02004409        0.01      0.01      0.69      0.01         0.01
  WS02004409WS02004410        0.67      0.69      0.67      1.12         0.67
  WS02004410WS02004411        0.62      0.67      0.62      1.17         0.62
  WS02004411WS02004412        0.54      0.62      0.54      1.21         0.54
  WS02004412WS02004413        0.54      0.54      0.98      0.01         0.01
  WS02004413WS02003067        0.01      0.01      0.98      0.01         0.01
  WS02006109WS02006110        1.70      1.70      4.19      1.70         0.01
  WS02006110WS02006113        0.90      0.90      4.18      0.24         0.01
  WS02006111WS02006112        0.85      0.85      4.18      0.01         0.01
  WS02006112WS02006115        1.11      1.11      1.88      0.01         0.01
  WS02006113WS02006111        0.88      0.90      0.88      1.07         0.88
  WS02006115WS02006116        1.13      1.13      1.14      1.12         1.10
  WS02006116WS02004401        1.21      1.21      1.22      1.19         1.16
  WS02006228WS02006109        4.18      4.19      4.18      4.27         4.18
  WS02006229WS02006228        4.18      4.18      4.18      4.23         4.18
  WS02006230WS02006229        4.20      4.20      4.20      4.24         3.42
  WS02006231WS02006230        1.47      1.47      1.74      4.09         0.69
  WS02006232WS02006231        1.71      1.71      4.11      0.01         0.11
  WS02006234WS02006232        4.11      4.11      4.11      0.01         0.01
  WS02006235WS02006234        3.52      3.53      4.11      4.03         0.69
  WS02006238WS02006235        4.11      4.11      4.11      0.01         0.25
  WS02006239WS02006238        4.11      4.11      4.11      3.56         2.99
  WS02006240WS02006239        4.11      4.11      4.11      3.55         2.99
  WS02006242WS02006240        4.11      4.11      4.11      3.62         0.63
  WS02006243WS02006242        4.11      4.11      4.11      0.01         0.01
  WS02006245WS02006243        4.11      4.11      4.11      2.98         2.97
  WS02006247WS02006245        4.11      4.11      4.11      4.05         3.27
  WS02006248WS02006247        4.11      4.11      4.11      0.02         0.01
  WS02006249WS02006248        4.11      4.11      4.11      3.23         0.01
  WS02006251WS02006249        4.11      4.13      4.11      4.14         4.11
  WS02006252WS02006251        4.16      4.16      4.16      3.96         0.01
  WS02006253WS02006251        4.13      4.13      4.14      0.55         0.01
  WS02006256WS02006235        4.21      4.22      4.68      0.33         0.01
  WS02006280WS02006229        0.54      0.54      0.67      0.01         0.01
  WS02006284WS02006280        0.47      0.47      0.53      0.01         0.01
  WS02006287WS02006284        0.40      0.40      0.47      0.15         0.15
  YS02001580YS02001583        0.36      0.36      0.40      0.01         0.01
  YS02001583YS02001586        0.37      0.37      0.54      0.01         0.01
  YS02001586YS02001590        0.55      0.55      0.62      0.01         0.01
  YS02001590YS02001593        0.62      0.62      0.63      0.61         0.01
  YS02001593YS02001596        0.63      0.63      0.75      0.01         0.01
  YS02001596YS02001600        0.85      0.85      1.04      0.01         0.01
  YS02001600YS02001601        1.11      1.11      1.85      0.01         0.01
  YS02001601YS02001602        1.69      1.69      1.91      0.77         0.01
  YS02001602YS02001605        1.66      1.66      1.69      1.88         0.01
  YS02001605YS02001607        1.63      1.66      1.80      0.99         0.92
  YS02001607YS02001610        0.83      0.83      0.88      0.01         0.01
  YS02001610YS02001613        0.83      0.83      0.88      0.01         0.01
  YS02001613YS02001616        0.72      0.72      0.83      0.01         0.01
  YS02001616YS02001619        0.69      0.69      0.72      0.01         0.01
  YS02001619YS02001622        0.68      0.69      0.71      0.52         0.43
  YS02001622YS02001625        0.71      0.71      1.23      0.01         0.01
  YS02001625YS02001629        0.62      0.62      1.23      0.01         0.01
  YS02001629YS02163301        1.41      1.41      1.51      0.04         0.07
  YS02001633YS02163601        1.63      1.63      1.85      0.19         0.18
  YS02001641YS02001644        1.71      1.72      1.73      1.14         0.90
  YS02001644YS02001647        1.10      1.10      1.73      0.02         0.01
  YS02001647YS02001649        1.10      1.10      1.81      0.01         0.01
  YS02001649YS02001757        1.80      1.81      2.16      0.06         0.04
  YS02001652YS02001649        1.15      1.15      1.81      0.01         0.01
  YS02001655YS02001652        0.34      0.34      1.01      0.01         0.01
  YS02001658YS02001655        0.07      0.07      0.34      0.01         0.01
  YS02001661YS02001658        0.01      0.01      0.07      0.01         0.01
  YS02001745YS02001748        0.01      0.01      0.01      0.01         0.01
  YS02001748YS02001751        0.05      0.05      0.16      0.01         0.01
  YS02001751YS02001754        0.16      0.16      0.88      0.01         0.01
  YS02001754YS02001757        1.08      1.08      2.16      0.01         0.01
  YS02001757CaochengTiaoxuchi        2.16      2.16      3.97      0.20         0.19
  YS02001759YS02001757        1.87      1.87      2.16      0.01         0.01
  YS02001762YS02001759        1.77      1.77      1.87      0.01         0.02
  YS02001765YS02001762        1.62      1.62      1.77      0.01         0.01
  YS02001767YS02001765        1.51      1.52      1.62      0.01         0.02
  YS02001770YS02001767        1.48      1.48      1.52      0.36         0.46
  YS02001774YS02001770        1.40      1.40      1.70      0.01         0.01
  YS02001779YS02001774        0.86      0.86      1.70      0.01         0.01
  YS02001783YS02001784        0.35      0.38      0.35      0.49         0.35
  YS02001784YS02001785        0.26      0.35      0.26      0.66         0.26
  YS02001786YS02001788        0.01      0.26      0.01      0.57         0.01
  YS02001790YS02001791        0.01      0.01      0.01      0.34         0.01
  YS02001793JiankangQianchi        0.01      0.01      0.38      0.01         0.01
  YS02001882YS02001884        0.33      0.33      0.34      0.01         0.01
  YS02001884YS02001887        0.36      0.36      0.37      0.01         0.01
  YS02001887YS02001890        0.38      0.38      0.39      0.01         0.01
  YS02001890YS02001895        0.32      0.32      0.40      0.01         0.01
  YS02001895YS02001898        0.31      0.31      0.32      0.01         0.01
  YS02001898YS02001901        0.32      0.32      0.35      0.01         0.01
  YS02001901YS02001904        0.35      0.35      0.35      0.01         0.01
  YS02001904YS02001907        0.35      0.35      0.56      0.01         0.01
  YS02001907YS02006553        0.67      0.67      0.72      0.01         0.01
  YS02001910YS02001907        0.40      0.40      0.54      0.01         0.01
  YS02001915YS02001910        0.33      0.33      0.40      0.01         0.01
  YS02001918YS02001915        0.25      0.25      0.33      0.01         0.01
  YS02001920YS02001918        0.25      0.25      0.26      0.01         0.01
  YS02001923YS02001920        0.21      0.21      0.26      0.01         0.01
  YS02001926YS02001923        0.01      0.01      0.01      0.01         0.01
  YS02001929YS02001926        0.01      0.01      0.01      0.01         0.01
  YS02006553YS02006556        0.47      0.47      0.55      0.01         0.01
  YS02006556YS02006558        0.51      0.51      0.56      0.01         0.01
  YS02006558YS02006561        0.28      0.46      0.28      0.63         0.28
  YS02006561YS02001783        0.21      0.21      0.38      0.01         0.01
  YS02163301YS02001633        1.51      1.51      1.69      0.01         0.01
  YS02163601YS02164001        1.67      1.67      1.85      0.05         0.01
  YS02164001YS02001641        1.67      1.67      1.72      0.50         0.46
  YSB1154YSB6556              0.50      0.50      0.60      0.01         0.01
  YSB1171HS02004479           0.42      0.42      0.60      0.01         0.01
  YSB1174YSB1171              0.55      0.55      0.80      0.01         0.01
  YSB6556YSB1171              0.50      0.50      0.92      0.01         0.01
  
  
  ***************
  Pumping Summary
  ***************
  
  ---------------------------------------------------------------------------------------------------------
                                                  Min       Avg       Max     Total     Power    % Time Off
                        Percent   Number of      Flow      Flow      Flow    Volume     Usage    Pump Curve
  Pump                 Utilized   Start-Ups       LPS       LPS       LPS  10^6 ltr     Kw-hr    Low   High
  ---------------------------------------------------------------------------------------------------------
  CC-R1                    5.57           2      0.00    683.00    683.00     0.821     16.46    0.0   50.0
  CC-R2                    0.00           0      0.00      0.00      0.00     0.000      0.00    0.0    0.0
  CC-S1                   69.30           1      0.00    200.00    200.00     2.994     14.71    0.0   24.9
  CC-S2                   69.30           1      0.00    200.00    200.00     2.994     14.71    0.0   24.9
  JK-R1                   88.87           4      0.00    192.16   1000.00     2.423      8.06    0.0    0.0
  JK-R2                   27.83           5      0.00    468.59   1000.00     1.469      4.26    0.0    0.0
  JK-S                    25.08           4      0.00    137.66    300.00     0.355      7.25    0.0    0.0
  XR-1                    97.20           1      0.00     95.00     95.00     1.995      8.82    0.0    0.0
  XR-2                    91.96           1      0.00     95.00     95.00     1.887      7.99    0.0    0.0
  XR-3                     0.00           0      0.00      0.00      0.00     0.000      0.00    0.0    0.0
  XR-4                     0.00           0      0.00      0.00      0.00     0.000      0.00    0.0    0.0
  

  Analysis begun on:  Sat Aug 27 11:17:12 2022
  Analysis ended on:  Sat Aug 27 11:17:16 2022
  Total elapsed time: 00:00:04