
  OWA STORM WATER MANAGEMENT MODEL - VERSION v5.1.14 (OWA 2022-07-31)
  --------------------------------------------------------------

  WARNING 04: minimum elevation drop used for Conduit WS02004404WS02004405
  WARNING 03: negative offset ignored for Link YS02001904YS02001907
  
  *********************************************************
  NOTE: The summary statistics displayed in this report are
  based on results found at every computational time step,  
  not just on results from each reporting time step.
  *********************************************************
  
  ****************
  Analysis Options
  ****************
  Flow Units ............... LPS
  Process Models:
    Rainfall/Runoff ........ YES
    RDII ................... NO
    Snowmelt ............... NO
    Groundwater ............ NO
    Flow Routing ........... YES
    Ponding Allowed ........ NO
    Water Quality .......... NO
  Infiltration Method ...... HORTON
  Flow Routing Method ...... DYNWAVE
  Surcharge Method ......... EXTRAN
  Starting Date ............ 01/01/2000 00:00:00
  Ending Date .............. 01/01/2000 06:00:00
  Antecedent Dry Days ...... 8.0
  Report Time Step ......... 00:01:00
  Wet Time Step ............ 00:01:00
  Dry Time Step ............ 00:01:00
  Routing Time Step ........ 30.00 sec
  Variable Time Step ....... YES
  Maximum Trials ........... 8
  Number of Threads ........ 4
  Head Tolerance ........... 0.001500 m
  
  
  **************************        Volume         Depth
  Runoff Quantity Continuity     hectare-m            mm
  **************************     ---------       -------
  Total Precipitation ......         4.278        70.615
  Evaporation Loss .........         0.000         0.000
  Infiltration Loss ........         0.245         4.047
  Surface Runoff ...........         3.968        65.495
  Final Storage ............         0.066         1.085
  Continuity Error (%) .....        -0.017
  
  
  **************************        Volume        Volume
  Flow Routing Continuity        hectare-m      10^6 ltr
  **************************     ---------     ---------
  Dry Weather Inflow .......         0.472         4.722
  Wet Weather Inflow .......         3.968        39.681
  Groundwater Inflow .......         0.000         0.000
  RDII Inflow ..............         0.000         0.000
  External Inflow ..........         0.078         0.784
  External Outflow .........         2.620        26.199
  Flooding Loss ............         2.077        20.772
  Evaporation Loss .........         0.000         0.000
  Exfiltration Loss ........         0.000         0.000
  Initial Stored Volume ....         0.303         3.031
  Final Stored Volume ......         0.313         3.133
  Continuity Error (%) .....        -3.912
  
  
  *************************
  Highest Continuity Errors
  *************************
  Node JK-storage (-37.36%)
  Node YS02001884 (5.34%)
  Node YS02001583 (-4.81%)
  Node HS02004842 (1.64%)
  
  
  ***************************
  Time-Step Critical Elements
  ***************************
  Link WS02006252WS02006251 (42.32%)
  Link WS02006280WS02006229 (21.25%)
  Link YS02001793JiankangQianchi (8.97%)
  Link WS02004404WS02004405 (6.13%)
  Link WS02006238WS02006235 (3.93%)
  
  
  ********************************
  Highest Flow Instability Indexes
  ********************************
  Link WS02006113WS02006111 (34)
  Link WS02006238WS02006235 (22)
  Link WS02006111WS02006112 (21)
  Link WS02004404WS02004405 (20)
  Link WS02006229WS02006228 (19)
  
  
  *************************
  Routing Time Step Summary
  *************************
  Minimum Time Step           :     0.50 sec
  Average Time Step           :     1.67 sec
  Maximum Time Step           :    30.00 sec
  Percent in Steady State     :     0.00
  Average Iterations per Step :     3.27
  Percent Not Converging      :    10.47
  
  
  ***************************
  Subcatchment Runoff Summary
  ***************************
  
  ------------------------------------------------------------------------------------------------------------------------------
                            Total      Total      Total      Total     Imperv       Perv      Total       Total     Peak  Runoff
                           Precip      Runon       Evap      Infil     Runoff     Runoff     Runoff      Runoff   Runoff   Coeff
  Subcatchment                 mm         mm         mm         mm         mm         mm         mm    10^6 ltr      LPS
  ------------------------------------------------------------------------------------------------------------------------------
  sub0                      70.61       0.00       0.00       1.01      64.41       3.94      68.35        0.06    33.46   0.968
  sub1                      70.61       0.00       0.00       1.73      61.54       6.04      67.58        0.45   243.09   0.957
  sub10                     70.61       0.00       0.00       1.22      63.63       4.43      68.06        0.75   411.50   0.964
  sub11                     70.61       0.00       0.00       1.20      63.67       4.45      68.12        0.79   449.94   0.965
  sub12                     70.61       0.00       0.00       1.95      60.24       7.23      67.48        0.59   352.36   0.956
  sub14                     70.61       0.00       0.00       1.37      62.96       4.99      67.95        0.65   361.84   0.962
  sub15                     70.61       0.00       0.00       5.40      48.42      15.79      64.21        1.10   579.22   0.909
  sub16                     70.61       0.00       0.00       5.57      46.39      17.74      64.13        0.67   380.83   0.908
  sub17                     70.61       0.00       0.00       5.43      47.08      17.17      64.25        0.55   310.14   0.910
  sub2                      70.61       0.00       0.00       7.73      43.52      18.40      61.92        0.58   260.34   0.877
  sub22                     70.61       0.00       0.00       8.19      39.45      22.17      61.62        3.89  1959.23   0.873
  sub23                     70.61       0.00       0.00       6.67      43.60      19.46      63.06        3.01  1600.48   0.893
  sub3                      70.61       0.00       0.00       8.09      43.44      17.72      61.17        1.38   572.32   0.866
  sub4                      70.61       0.00       0.00       1.94      61.22       5.83      67.05        1.40   621.32   0.950
  sub5                      70.61       0.00       0.00       1.06      64.31       3.88      68.19        0.77   417.62   0.966
  sub60                     70.61       0.00       0.00       1.84      60.91       6.64      67.55        0.89   509.77   0.957
  sub61                     70.61       0.00       0.00       2.67      57.45       9.34      66.79        1.23   708.68   0.946
  sub62                     70.61       0.00       0.00       1.22      63.62       4.43      68.05        1.86  1011.90   0.964
  sub63                     70.61       0.00       0.00       4.94      49.14      15.54      64.68        1.47   815.77   0.916
  sub64                     70.61       0.00       0.00       2.50      58.74       8.10      66.84        1.61   837.97   0.947
  sub65                     70.61       0.00       0.00       2.16      60.09       7.02      67.11        1.85   939.68   0.950
  sub66                     70.61       0.00       0.00       6.15      48.94      14.33      63.27        2.95  1276.30   0.896
  sub67                     70.61       0.00       0.00       1.17      63.70       4.48      68.18        1.27   749.76   0.965
  sub68                     70.61       0.00       0.00       2.21      59.50       7.68      67.18        1.85  1033.56   0.951
  sub69                     70.61       0.00       0.00       1.99      59.82       8.60      68.42        2.53  1249.65   0.969
  sub7                      70.61       0.00       0.00       1.35      62.99       5.01      68.00        0.23   132.29   0.963
  sub70                     70.61       0.00       0.00       6.67      46.30      17.34      63.64        1.84   734.26   0.901
  sub71                     70.61       0.00       0.00       1.26      63.54       4.39      67.93        1.78   905.81   0.962
  sub72                     70.61       0.00       0.00       1.12      64.11       3.82      67.94        0.93   443.07   0.962
  sub8                      70.61       0.00       0.00       1.36      62.97       5.00      67.96        0.43   245.20   0.962
  sub9                      70.61       0.00       0.00       1.37      62.96       4.99      67.95        0.33   183.62   0.962
  
  
  ******************
  Node Depth Summary
  ******************
  
  ---------------------------------------------------------------------------------
                                 Average  Maximum  Maximum  Time of Max    Reported
                                   Depth    Depth      HGL   Occurrence   Max Depth
  Node                 Type       Meters   Meters   Meters  days hr:min      Meters
  ---------------------------------------------------------------------------------
  HS02004478           JUNCTION     0.27     1.59    10.81     0  02:12        1.58
  HS02004479           JUNCTION     0.35     1.70    10.90     0  02:06        1.67
  HS02004480           JUNCTION     0.32     1.67    10.91     0  02:06        1.63
  HS02004770           JUNCTION     0.31     1.42    11.25     0  02:02        1.42
  HS02004777           JUNCTION     0.33     1.48    11.28     0  02:02        1.48
  HS02004785           JUNCTION     0.23     1.49    11.39     0  02:02        1.35
  HS02004788           JUNCTION     0.20     1.42    11.32     0  02:02        1.34
  HS02004792           JUNCTION     0.26     1.60    11.12     0  02:00        1.60
  HS02004799           JUNCTION     0.39     1.76    10.97     0  02:06        1.76
  HS02004802           JUNCTION     0.35     1.80    10.93     0  02:12        1.79
  HS02004807           JUNCTION     0.33     1.92    11.09     0  02:06        1.92
  HS02004817           JUNCTION     0.64     2.44    11.29     0  02:06        2.38
  HS02004824           JUNCTION     0.21     2.01    11.41     0  02:06        1.96
  HS02004830           JUNCTION     0.21     2.03    11.50     0  02:06        1.92
  HS02004837           JUNCTION     0.18     2.04    11.62     0  02:06        1.85
  HS02004842           JUNCTION     0.48     2.22    11.49     0  02:06        2.16
  HS02004848           JUNCTION     0.16     2.07    11.67     0  02:06        1.83
  HS02004852           JUNCTION     0.17     2.12    11.63     0  02:05        1.89
  HS02004856           JUNCTION     0.22     2.07    11.50     0  02:06        1.94
  HS02004862           JUNCTION     0.18     2.00    11.38     0  02:05        1.93
  HS02004870           JUNCTION     0.18     2.10    11.39     0  02:05        1.91
  HS02004876           JUNCTION     0.23     2.08    11.11     0  02:05        2.00
  HS02004881           JUNCTION     0.16     1.76    10.79     0  02:06        1.75
  HS02004901           JUNCTION     0.31     1.42    11.24     0  02:02        1.42
  WS02001211           JUNCTION     0.65     0.81     5.65     0  02:18        0.81
  WS02001212           JUNCTION     0.40     0.57     5.64     0  02:17        0.57
  WS02001213           JUNCTION     0.63     0.87     5.63     0  02:17        0.87
  WS02003059           JUNCTION     0.69     0.94     5.63     0  02:16        0.94
  WS02003060           JUNCTION     0.41     0.69     5.62     0  02:16        0.69
  WS02003066           JUNCTION     0.24     0.46     6.01     0  02:15        0.46
  WS02003067           JUNCTION     0.57     0.89     6.21     0  02:15        0.89
  WS02003069           JUNCTION     0.46     0.78     5.36     0  02:17        0.78
  WS02003072           JUNCTION     0.52     0.81     5.19     0  02:17        0.81
  WS02003073           JUNCTION     0.31     0.52     4.58     0  02:18        0.52
  WS02004138           JUNCTION     0.14     0.14     7.39     0  00:29        0.14
  WS02004139           JUNCTION     0.59     0.75     5.66     0  02:18        0.75
  WS02004401           JUNCTION     0.85     1.88     7.88     0  02:15        1.88
  WS02004402           JUNCTION     0.87     1.82     7.78     0  02:15        1.82
  WS02004403           JUNCTION     0.87     1.75     7.68     0  02:14        1.73
  WS02004404           JUNCTION     0.93     1.75     7.60     0  02:14        1.75
  WS02004405           JUNCTION     0.92     1.70     7.55     0  02:15        1.69
  WS02004406           JUNCTION     0.91     1.59     7.42     0  02:15        1.58
  WS02004407           JUNCTION     0.30     0.94     7.25     0  02:15        0.94
  WS02004409           JUNCTION     0.60     1.40     7.17     0  02:14        1.39
  WS02004410           JUNCTION     0.60     1.30     7.02     0  02:15        1.29
  WS02004411           JUNCTION     0.60     1.21     6.89     0  02:15        1.21
  WS02004412           JUNCTION     0.60     1.11     6.75     0  02:14        1.10
  WS02004413           JUNCTION     0.74     1.15     6.62     0  02:14        1.14
  WS02006109           JUNCTION     1.10     2.64     9.26     0  02:03        2.64
  WS02006110           JUNCTION     1.03     2.40     8.98     0  02:14        2.39
  WS02006111           JUNCTION     0.49     1.76     8.46     0  02:15        1.76
  WS02006112           JUNCTION     1.09     2.68     8.56     0  00:00        2.39
  WS02006113           JUNCTION     0.58     1.83     8.73     0  02:14        1.83
  WS02006115           JUNCTION     0.78     1.98     8.12     0  02:15        1.98
  WS02006116           JUNCTION     0.85     1.97     8.01     0  02:14        1.95
  WS02006228           JUNCTION     1.18     3.03     9.68     0  02:16        3.02
  WS02006229           JUNCTION     1.19     3.22     9.92     0  02:06        3.22
  WS02006230           JUNCTION     1.11     2.65     9.39     0  01:58        2.65
  WS02006231           JUNCTION     0.83     2.19     9.31     0  02:00        2.19
  WS02006232           JUNCTION     0.93     2.18     9.22     0  01:58        2.18
  WS02006234           JUNCTION     0.81     1.96     9.12     0  01:57        1.96
  WS02006235           JUNCTION     0.82     2.00     9.16     0  02:50        1.92
  WS02006238           JUNCTION     0.84     2.03     9.18     0  02:50        1.93
  WS02006239           JUNCTION     0.79     1.89     9.10     0  02:50        1.78
  WS02006240           JUNCTION     0.74     1.70     8.99     0  02:50        1.62
  WS02006242           JUNCTION     0.78     1.55     8.82     0  01:40        1.55
  WS02006243           JUNCTION     0.66     1.38     8.80     0  01:50        1.36
  WS02006245           JUNCTION     0.64     1.28     8.76     0  01:50        1.26
  WS02006247           JUNCTION     0.65     1.23     8.73     0  01:50        1.23
  WS02006248           JUNCTION     0.59     1.10     8.69     0  01:40        1.10
  WS02006249           JUNCTION     0.62     1.09     8.69     0  01:39        1.09
  WS02006251           JUNCTION     0.75     2.17     9.84     0  02:06        2.13
  WS02006252           JUNCTION     0.53     1.50     9.74     0  02:00        1.50
  WS02006253           JUNCTION     0.84     3.04    10.68     0  02:15        3.03
  WS02006256           JUNCTION     1.12     2.35     9.28     0  00:46        2.35
  WS02006280           JUNCTION     0.34     1.75    10.02     0  02:12        1.74
  WS02006284           JUNCTION     0.60     1.94    10.34     0  02:12        1.94
  WS02006287           JUNCTION     0.34     1.74    10.69     0  02:14        1.73
  WSF200               JUNCTION     0.25     0.52     5.76     0  02:16        0.52
  YS02001580           JUNCTION     0.11     1.05     9.59     0  02:01        0.77
  YS02001583           JUNCTION     0.13     1.03     9.52     0  02:01        0.81
  YS02001586           JUNCTION     0.23     1.13     9.30     0  02:01        1.13
  YS02001590           JUNCTION     0.34     1.40     9.26     0  02:01        1.37
  YS02001593           JUNCTION     0.27     1.32     9.18     0  02:01        1.28
  YS02001596           JUNCTION     0.36     1.68     9.10     0  02:01        1.65
  YS02001600           JUNCTION     0.44     1.87     9.00     0  02:01        1.86
  YS02001601           JUNCTION     0.63     2.06     8.90     0  02:00        2.06
  YS02001602           JUNCTION     0.54     1.87     8.77     0  02:04        1.87
  YS02001605           JUNCTION     0.50     1.78     8.68     0  02:15        1.77
  YS02001607           JUNCTION     0.48     1.65     8.49     0  02:09        1.64
  YS02001610           JUNCTION     0.51     1.68     8.48     0  02:04        1.68
  YS02001613           JUNCTION     0.48     1.66     8.50     0  02:13        1.65
  YS02001616           JUNCTION     0.42     1.60     8.51     0  02:14        1.59
  YS02001619           JUNCTION     0.40     1.59     8.51     0  02:14        1.58
  YS02001622           JUNCTION     0.38     1.56     8.47     0  02:14        1.56
  YS02001625           JUNCTION     0.58     1.78     8.38     0  02:04        1.78
  YS02001629           JUNCTION     0.50     1.85     8.40     0  02:06        1.85
  YS02001633           JUNCTION     0.57     2.02     8.47     0  02:06        1.97
  YS02001641           JUNCTION     0.55     1.95     8.39     0  02:07        1.93
  YS02001644           JUNCTION     0.55     1.92     8.35     0  02:07        1.92
  YS02001647           JUNCTION     0.36     1.77     8.38     0  02:07        1.74
  YS02001649           JUNCTION     0.42     2.00     8.39     0  02:07        1.96
  YS02001652           JUNCTION     0.32     2.04     8.64     0  02:07        1.78
  YS02001655           JUNCTION     0.25     1.88     8.73     0  02:06        1.57
  YS02001658           JUNCTION     0.18     2.03     9.17     0  02:07        1.31
  YS02001661           JUNCTION     0.18     1.12     8.52     0  02:14        1.09
  YS02001664           JUNCTION     0.07     0.52     8.44     0  02:15        0.52
  YS02001745           JUNCTION     0.10     0.81     8.33     0  02:14        0.81
  YS02001748           JUNCTION     0.18     1.74     8.81     0  02:08        1.24
  YS02001751           JUNCTION     0.22     1.72     8.60     0  02:08        1.43
  YS02001754           JUNCTION     0.29     1.80     8.40     0  02:08        1.68
  YS02001757           JUNCTION     0.45     2.03     8.29     0  02:14        2.02
  YS02001759           JUNCTION     0.40     2.01     8.37     0  02:14        1.99
  YS02001762           JUNCTION     0.39     1.98     8.38     0  02:14        1.96
  YS02001765           JUNCTION     0.37     1.94     8.39     0  02:14        1.93
  YS02001767           JUNCTION     0.36     1.91     8.40     0  02:14        1.90
  YS02001770           JUNCTION     0.38     1.92     8.41     0  02:14        1.91
  YS02001774           JUNCTION     0.43     1.99     8.41     0  02:06        1.98
  YS02001779           JUNCTION     0.26     1.68     8.37     0  02:05        1.68
  YS02001783           JUNCTION     0.27     2.08     8.22     0  02:15        1.48
  YS02001784           JUNCTION     0.28     1.96     8.03     0  02:15        1.42
  YS02001786           JUNCTION     0.24     1.68     7.71     0  02:15        1.26
  YS02001788           JUNCTION     0.18     1.69     7.67     0  02:35        1.13
  YS02001790           JUNCTION     0.21     1.77     7.41     0  02:35        1.29
  YS02001791           JUNCTION     0.14     2.27     7.74     0  02:00        1.27
  YS02001793           JUNCTION     0.12     2.16     7.00     0  02:00        1.80
  YS02001882           JUNCTION     0.33     1.66     8.38     0  02:06        1.64
  YS02001884           JUNCTION     0.40     1.75     8.37     0  02:06        1.73
  YS02001887           JUNCTION     0.48     1.82     8.36     0  02:14        1.81
  YS02001890           JUNCTION     0.51     1.81     8.32     0  02:06        1.81
  YS02001895           JUNCTION     0.30     1.57     8.31     0  02:15        1.56
  YS02001898           JUNCTION     0.30     1.56     8.30     0  02:14        1.56
  YS02001901           JUNCTION     0.39     1.68     8.29     0  02:15        1.67
  YS02001904           JUNCTION     0.38     1.64     8.27     0  02:06        1.63
  YS02001907           JUNCTION     0.67     1.96     8.25     0  02:06        1.96
  YS02001910           JUNCTION     0.48     2.01     8.52     0  02:07        1.87
  YS02001915           JUNCTION     0.33     1.97     8.69     0  02:07        1.75
  YS02001918           JUNCTION     0.19     1.81     8.88     0  02:07        1.43
  YS02001920           JUNCTION     0.27     2.10     9.11     0  02:07        1.49
  YS02001923           JUNCTION     0.15     2.03     9.29     0  02:07        1.25
  YS02001926           JUNCTION     0.18     1.90     9.35     0  02:07        1.08
  YS02001929           JUNCTION     0.10     1.78     9.47     0  02:07        0.84
  YS02006553           JUNCTION     0.68     2.18     8.46     0  02:15        1.97
  YS02006556           JUNCTION     0.65     2.39     8.70     0  02:15        1.94
  YS02006558           JUNCTION     0.69     2.50     8.77     0  02:15        1.99
  YS02006561           JUNCTION     0.17     1.68     8.34     0  02:15        1.09
  YS02163301           JUNCTION     0.52     1.92     8.44     0  02:06        1.90
  YS02163601           JUNCTION     0.61     2.03     8.43     0  02:06        2.00
  YS02164001           JUNCTION     0.54     1.95     8.41     0  02:07        1.92
  YSB1154              JUNCTION     0.47     1.92    10.98     0  02:14        1.91
  YSB1171              JUNCTION     0.63     1.95    10.85     0  02:06        1.95
  YSB1174              JUNCTION     0.43     1.80    10.91     0  02:14        1.79
  YSB6556              JUNCTION     0.38     1.75    10.91     0  02:06        1.74
  CC-1                 OUTFALL      0.00     0.00     0.00     0  00:00        0.00
  CC-2                 OUTFALL      0.00     0.00     0.00     0  00:00        0.00
  JK-1                 OUTFALL      0.00     0.00     0.00     0  00:00        0.00
  JK-2                 OUTFALL      0.00     0.00     0.00     0  00:00        0.00
  WSC                  OUTFALL      0.31     0.52     1.19     0  02:18        0.52
  CC-storage           STORAGE      0.92     1.89     7.39     0  02:39        1.89
  JK-storage           STORAGE      2.34     5.80     6.60     0  02:15        5.80
  XR-storage           STORAGE      7.57     8.66     6.66     0  06:00        8.66
  
  
  *******************
  Node Inflow Summary
  *******************
  
  -------------------------------------------------------------------------------------------------
                                  Maximum  Maximum                  Lateral       Total        Flow
                                  Lateral    Total  Time of Max      Inflow      Inflow     Balance
                                   Inflow   Inflow   Occurrence      Volume      Volume       Error
  Node                 Type           LPS      LPS  days hr:min    10^6 ltr    10^6 ltr     Percent
  -------------------------------------------------------------------------------------------------
  HS02004478           JUNCTION      0.00  2305.04     0  02:13           0        9.35      -0.010
  HS02004479           JUNCTION      0.00   394.81     0  02:06           0       0.928       0.066
  HS02004480           JUNCTION      0.00  2060.99     0  02:06           0        6.95       0.031
  HS02004770           JUNCTION   1600.48  1600.48     0  02:15        3.01        3.25       0.095
  HS02004777           JUNCTION      0.03   708.28     0  02:02    0.000648        2.01       0.272
  HS02004785           JUNCTION      0.15   725.94     0  02:02     0.00324        2.01       0.028
  HS02004788           JUNCTION    580.89   840.87     0  02:03        1.14        3.15      -0.010
  HS02004792           JUNCTION   1959.51  2778.02     0  02:15         3.9        7.05       0.005
  HS02004799           JUNCTION    361.84  1709.93     0  02:05       0.647        6.27       0.045
  HS02004802           JUNCTION      0.00  1233.25     0  02:15           0        2.57       0.156
  HS02004807           JUNCTION    449.94  1511.15     0  02:15       0.792        2.68       0.155
  HS02004817           JUNCTION      0.60  1064.44     0  02:15       0.013        1.94       0.892
  HS02004824           JUNCTION    621.37  1062.84     0  02:15         1.4        2.13       0.028
  HS02004830           JUNCTION      0.15   562.82     0  02:03     0.00324       0.939       0.117
  HS02004837           JUNCTION    417.85   754.17     0  02:06       0.888         1.3       0.046
  HS02004842           JUNCTION      0.00   758.17     0  02:05           0       0.783       1.667
  HS02004848           JUNCTION    572.32  1002.63     0  02:05        1.38        1.99      -0.016
  HS02004852           JUNCTION      0.00   975.00     0  02:05           0        1.84      -0.022
  HS02004856           JUNCTION    183.62   993.77     0  02:05       0.327        2.16       0.082
  HS02004862           JUNCTION    260.54  1076.40     0  02:05       0.581        2.74       0.001
  HS02004870           JUNCTION    245.20  1228.82     0  02:15       0.434        3.18      -0.006
  HS02004876           JUNCTION    243.09  1472.07     0  02:15       0.449        3.63       0.028
  HS02004881           JUNCTION    132.29  1604.33     0  02:15       0.229        3.85      -0.007
  HS02004901           JUNCTION    380.83   645.95     0  02:15       0.672        1.08       0.163
  WS02001211           JUNCTION      7.35   205.46     0  03:16       0.159        4.02       0.828
  WS02001212           JUNCTION      0.00   211.63     0  03:16           0        3.98       0.395
  WS02001213           JUNCTION      0.00   214.86     0  03:16           0        3.97       0.453
  WS02003059           JUNCTION      0.00   219.95     0  03:15           0        3.96       0.813
  WS02003060           JUNCTION     16.53  1512.70     0  02:16       0.357        13.6       0.110
  WS02003066           JUNCTION      0.00  1310.10     0  02:15           0        9.27       0.016
  WS02003067           JUNCTION      0.00  1309.96     0  02:15           0        9.28       0.048
  WS02003069           JUNCTION      0.32  1512.70     0  02:16     0.00691        13.5       0.115
  WS02003072           JUNCTION      0.00  1512.37     0  02:17           0        13.5       0.155
  WS02003073           JUNCTION      1.82  1514.27     0  02:17      0.0393        13.5       0.163
  WS02004138           JUNCTION      0.00   190.00     0  00:29           0        3.88       0.084
  WS02004139           JUNCTION      0.32   191.33     0  00:29     0.00693        3.89       0.688
  WS02004401           JUNCTION      0.00  1310.85     0  02:15           0        9.39       0.127
  WS02004402           JUNCTION      0.00  1311.09     0  02:15           0        9.38       0.120
  WS02004403           JUNCTION      0.00  1311.23     0  02:15           0        9.37       0.118
  WS02004404           JUNCTION      0.16  1312.01     0  02:15      0.0035        9.36       0.098
  WS02004405           JUNCTION      0.04  1312.54     0  02:15    0.000823        9.36       0.136
  WS02004406           JUNCTION      0.00  1312.24     0  02:15           0        9.34       0.235
  WS02004407           JUNCTION      0.00  1312.95     0  02:15           0        9.32       0.017
  WS02004409           JUNCTION      0.00  1309.56     0  02:15           0        9.31       0.038
  WS02004410           JUNCTION      0.00  1309.90     0  02:15           0        9.31       0.054
  WS02004411           JUNCTION      0.00  1310.27     0  02:15           0        9.31       0.067
  WS02004412           JUNCTION      0.00  1309.83     0  02:15           0         9.3       0.088
  WS02004413           JUNCTION      0.00  1309.94     0  02:15           0        9.29       0.153
  WS02006109           JUNCTION      1.23  1308.01     0  00:00      0.0266        9.14       0.127
  WS02006110           JUNCTION      0.00  1124.96     0  02:34           0         8.8      -0.396
  WS02006111           JUNCTION      0.00  1176.04     0  00:00           0        8.83      -0.431
  WS02006112           JUNCTION    310.14  2307.30     0  00:00       0.551        9.42       0.005
  WS02006113           JUNCTION      0.00  1125.14     0  02:34           0        8.79      -0.510
  WS02006115           JUNCTION      0.00  2152.75     0  00:00           0         9.4       0.054
  WS02006116           JUNCTION      0.00  1310.36     0  02:15           0        9.39       0.027
  WS02006228           JUNCTION      0.00  1289.15     0  02:18           0         9.1       0.075
  WS02006229           JUNCTION      0.00  2305.59     0  02:13           0        11.8       0.060
  WS02006230           JUNCTION     10.28  1026.08     0  02:13       0.222        5.13       0.068
  WS02006231           JUNCTION      0.00   453.27     0  02:03           0        3.81      -0.041
  WS02006232           JUNCTION      0.00   453.39     0  02:40           0        3.82       0.126
  WS02006234           JUNCTION      0.00   453.10     0  02:40           0        3.81      -0.047
  WS02006235           JUNCTION      0.00   419.54     0  03:45           0        3.76       0.061
  WS02006238           JUNCTION      0.00   419.42     0  03:45           0        3.41      -0.044
  WS02006239           JUNCTION      0.00   419.38     0  03:45           0        3.39      -0.044
  WS02006240           JUNCTION      0.00   419.32     0  03:45           0        3.38       0.004
  WS02006242           JUNCTION      0.00   419.28     0  03:45           0        3.36       0.055
  WS02006243           JUNCTION      0.00   419.24     0  03:45           0        2.93      -0.015
  WS02006245           JUNCTION      0.00   419.19     0  03:45           0        2.93       0.106
  WS02006247           JUNCTION      0.00   419.13     0  03:45           0        2.93       0.016
  WS02006248           JUNCTION      0.00   419.05     0  03:45           0        3.23       0.022
  WS02006249           JUNCTION      0.00  1363.91     0  02:15           0        6.83       0.034
  WS02006251           JUNCTION      0.08  1639.17     0  02:15     0.00166        6.97      -0.019
  WS02006252           JUNCTION      0.00   677.44     0  02:15           0        3.75      -0.016
  WS02006253           JUNCTION     33.46  1638.51     0  02:15      0.0554        3.92       0.012
  WS02006256           JUNCTION      0.00   300.00     0  01:40           0        1.14       0.007
  WS02006280           JUNCTION      0.00  2304.15     0  02:12           0        9.33       0.002
  WS02006284           JUNCTION      0.10  2303.65     0  02:13     0.00207        9.33       0.004
  WS02006287           JUNCTION      0.00  2304.11     0  02:12           0        9.33       0.010
  WSF200               JUNCTION      0.00  1310.19     0  02:15           0        9.27       0.009
  YS02001580           JUNCTION      0.00    71.81     0  02:01           0     0.00413       1.226
  YS02001583           JUNCTION      0.00   119.49     0  02:00           0      0.0153      -4.593
  YS02001586           JUNCTION    734.26   734.29     0  02:20        1.84        1.85       0.056
  YS02001590           JUNCTION      0.00   317.92     0  02:30           0        1.43      -0.009
  YS02001593           JUNCTION      0.00   318.01     0  02:33           0        1.43       0.001
  YS02001596           JUNCTION      0.00   318.01     0  02:34           0        1.43      -0.018
  YS02001600           JUNCTION      0.00   318.05     0  02:16           0        1.43       0.020
  YS02001601           JUNCTION   1249.65  1567.10     0  02:15        2.53        3.96       0.031
  YS02001602           JUNCTION      0.00   494.14     0  02:00           0         2.4       0.033
  YS02001605           JUNCTION      0.00   494.65     0  02:00           0        2.26       0.047
  YS02001607           JUNCTION      0.00   495.96     0  02:00           0        2.25       0.109
  YS02001610           JUNCTION      0.00   702.04     0  02:19           0         2.5       0.107
  YS02001613           JUNCTION      0.00   501.74     0  02:00           0        1.96       0.103
  YS02001616           JUNCTION      0.00   503.83     0  02:00           0        1.96       0.033
  YS02001619           JUNCTION   1276.30  1276.30     0  02:20        2.95        4.66       0.004
  YS02001622           JUNCTION      0.00   931.37     0  02:15           0        4.41       0.006
  YS02001625           JUNCTION      0.00  1330.91     0  02:15           0         4.7       0.238
  YS02001629           JUNCTION      0.00   903.58     0  02:04           0         3.4       0.009
  YS02001633           JUNCTION    939.88  1271.48     0  02:04        1.85        4.97       0.080
  YS02001641           JUNCTION      0.00  1270.02     0  02:04           0        4.68       0.068
  YS02001644           JUNCTION    838.01  1614.99     0  02:05        1.61        6.28       0.058
  YS02001647           JUNCTION      0.00  1615.56     0  02:05           0        5.71       0.005
  YS02001649           JUNCTION      0.00  1796.45     0  02:03           0        7.19       0.003
  YS02001652           JUNCTION      0.00   829.99     0  02:15           0        1.47      -0.067
  YS02001655           JUNCTION      0.15   829.89     0  02:15     0.00332        1.47       0.031
  YS02001658           JUNCTION      0.00   829.98     0  02:15           0        1.47      -0.034
  YS02001661           JUNCTION      0.00   825.23     0  02:15           0        1.47       0.014
  YS02001664           JUNCTION    815.77   815.77     0  02:15        1.47        1.47      -0.007
  YS02001745           JUNCTION    509.78   509.78     0  02:15       0.888       0.888       0.133
  YS02001748           JUNCTION      0.04   514.41     0  02:15    0.000972       0.888      -0.221
  YS02001751           JUNCTION      0.01   515.31     0  02:15    0.000238       0.895       0.111
  YS02001754           JUNCTION      0.26   515.88     0  02:15     0.00562       0.907      -0.144
  YS02001757           JUNCTION      0.00  2928.29     0  02:12           0          11       0.018
  YS02001759           JUNCTION    708.72  1199.98     0  02:13        1.23        2.86      -0.012
  YS02001762           JUNCTION      0.00   667.56     0  02:10           0        1.63      -0.008
  YS02001765           JUNCTION      0.00   666.42     0  02:10           0        1.63      -0.009
  YS02001767           JUNCTION      0.54   666.57     0  02:10      0.0116        1.63       0.003
  YS02001770           JUNCTION   1012.05  1012.05     0  02:15        1.87        1.91      -0.030
  YS02001774           JUNCTION      0.00   529.74     0  02:15           0       0.306       0.308
  YS02001779           JUNCTION      0.01   530.49     0  02:15    0.000108       0.263      -0.174
  YS02001783           JUNCTION      0.00  1161.13     0  02:13           0         4.3       0.006
  YS02001784           JUNCTION      1.06  1162.42     0  02:13      0.0229        4.33       0.016
  YS02001786           JUNCTION      0.06  1162.20     0  02:13     0.00122        4.33       0.008
  YS02001788           JUNCTION      0.07  1163.27     0  02:15     0.00153        4.33       0.002
  YS02001790           JUNCTION      0.15  1204.76     0  02:21     0.00335        4.33      -0.015
  YS02001791           JUNCTION      0.00  1357.80     0  02:21           0        4.33      -0.054
  YS02001793           JUNCTION      0.00  1412.71     0  02:21           0        4.34      -0.016
  YS02001882           JUNCTION      0.00    34.44     0  02:04           0      0.0126       5.144
  YS02001884           JUNCTION      0.00    41.14     0  02:02           0      0.0484       5.636
  YS02001887           JUNCTION    750.21   750.42     0  02:15        1.28        1.31       0.349
  YS02001890           JUNCTION      0.00   750.66     0  02:15           0        1.27       0.405
  YS02001895           JUNCTION      0.00   518.30     0  02:17           0        1.18       0.147
  YS02001898           JUNCTION      0.00   517.74     0  02:20           0        1.18       0.019
  YS02001901           JUNCTION      0.00   518.33     0  02:17           0        1.18       0.285
  YS02001904           JUNCTION      0.00   518.11     0  02:17           0        1.19       0.238
  YS02001907           JUNCTION      0.00  1865.66     0  02:15           0        3.95       0.452
  YS02001910           JUNCTION      0.00  1350.50     0  02:15           0        2.77       0.265
  YS02001915           JUNCTION    905.83  1349.74     0  02:15        1.78         2.8       0.059
  YS02001918           JUNCTION      0.00   451.70     0  02:15           0        1.04       0.025
  YS02001920           JUNCTION      2.87   451.54     0  02:15       0.062        1.03       0.100
  YS02001923           JUNCTION      0.04   448.41     0  02:15    0.000814       0.956      -0.084
  YS02001926           JUNCTION      0.05   448.34     0  02:15     0.00113       0.942       0.092
  YS02001929           JUNCTION    443.07   443.07     0  02:15       0.934       0.935      -0.033
  YS02006553           JUNCTION      0.00   798.17     0  02:32           0        2.49       0.489
  YS02006556           JUNCTION      0.00   797.90     0  02:32           0        2.49       0.318
  YS02006558           JUNCTION   1034.44  1162.33     0  02:13        1.87        4.34       0.086
  YS02006561           JUNCTION      0.00  1161.39     0  02:13           0         4.3      -0.002
  YS02163301           JUNCTION      0.00   902.22     0  02:04           0        3.41       0.054
  YS02163601           JUNCTION      0.11  1271.13     0  02:04     0.00238        4.67       0.113
  YS02164001           JUNCTION      0.00  1270.37     0  02:04           0        4.67       0.051
  YSB1154              JUNCTION    417.62   417.62     0  02:15       0.773       0.773       0.192
  YSB1171              JUNCTION      0.00  1002.42     0  02:15           0         1.5       0.423
  YSB1174              JUNCTION    352.36   352.36     0  02:15        0.59        0.59       0.218
  YSB6556              JUNCTION      0.00   417.70     0  02:15           0       0.774       0.148
  CC-1                 OUTFALL       0.00   683.00     0  02:10           0        4.11       0.000
  CC-2                 OUTFALL       0.00   683.00     0  02:10           0        4.11       0.000
  JK-1                 OUTFALL       0.00  1000.00     0  01:40           0        2.23       0.000
  JK-2                 OUTFALL       0.00  1000.00     0  01:40           0        2.23       0.000
  WSC                  OUTFALL       0.00  1514.38     0  02:18           0        13.5       0.000
  CC-storage           STORAGE       0.00  2927.50     0  02:12           0        13.2      -0.213
  JK-storage           STORAGE       0.00  1699.72     0  02:21           0        4.49     -27.199
  XR-storage           STORAGE     200.00   200.00     0  00:00        4.32        4.92       0.001
  
  
  **********************
  Node Surcharge Summary
  **********************
  
  Surcharging occurs when water rises above the top of the highest conduit.
  ---------------------------------------------------------------------
                                               Max. Height   Min. Depth
                                   Hours       Above Crown    Below Rim
  Node                 Type      Surcharged         Meters       Meters
  ---------------------------------------------------------------------
  HS02004478           JUNCTION        0.57          0.666        0.274
  HS02004479           JUNCTION        0.71          0.899        0.151
  HS02004480           JUNCTION        0.75          0.962        0.138
  HS02004770           JUNCTION        0.65          0.720        0.000
  HS02004777           JUNCTION        0.66          0.780        0.000
  HS02004785           JUNCTION        0.60          0.790        0.000
  HS02004788           JUNCTION        0.59          0.720        0.000
  HS02004792           JUNCTION        0.72          0.900        0.000
  HS02004799           JUNCTION        0.86          1.060        0.000
  HS02004802           JUNCTION        0.77          1.094        0.116
  HS02004807           JUNCTION        0.75          1.220        0.000
  HS02004817           JUNCTION        1.35          1.739        0.001
  HS02004824           JUNCTION        0.60          1.310        0.000
  HS02004830           JUNCTION        0.56          1.330        0.000
  HS02004837           JUNCTION        0.52          1.340        0.000
  HS02004842           JUNCTION        0.67          1.520        0.000
  HS02004848           JUNCTION        0.49          1.370        0.000
  HS02004852           JUNCTION        0.51          1.420        0.000
  HS02004856           JUNCTION        0.51          1.300        0.000
  HS02004862           JUNCTION        0.54          1.300        0.000
  HS02004870           JUNCTION        0.56          1.400        0.000
  HS02004876           JUNCTION        0.64          1.377        0.183
  HS02004881           JUNCTION        0.62          1.064        0.386
  HS02004901           JUNCTION        0.66          0.720        0.000
  WS02004401           JUNCTION        1.69          0.876        0.784
  WS02004402           JUNCTION        1.74          0.820        0.920
  WS02004403           JUNCTION        1.74          0.750        1.280
  WS02004404           JUNCTION        1.94          0.750        2.030
  WS02004405           JUNCTION        1.89          0.698        2.102
  WS02004406           JUNCTION        1.85          0.589        1.861
  WS02004409           JUNCTION        1.17          0.398        1.962
  WS02004410           JUNCTION        1.09          0.305        2.235
  WS02004411           JUNCTION        0.98          0.213        2.317
  WS02004412           JUNCTION        0.89          0.111        2.199
  WS02004413           JUNCTION        1.48          0.148        2.052
  WS02006109           JUNCTION        2.47          1.820        0.000
  WS02006110           JUNCTION        2.27          1.485        0.365
  WS02006111           JUNCTION        1.43          0.945        0.925
  WS02006112           JUNCTION        2.36          1.680        0.000
  WS02006113           JUNCTION        1.46          1.032        0.898
  WS02006115           JUNCTION        1.58          0.973        1.277
  WS02006116           JUNCTION        1.60          0.908        1.382
  WS02006228           JUNCTION        2.47          2.200        0.000
  WS02006229           JUNCTION        1.01          1.044        0.026
  WS02006230           JUNCTION        2.00          1.570        0.000
  WS02006231           JUNCTION        2.26          1.479        0.051
  WS02006232           JUNCTION        2.37          1.480        0.000
  WS02006234           JUNCTION        2.29          1.240        0.000
  WS02006235           JUNCTION        2.31          1.290        0.000
  WS02006238           JUNCTION        2.32          1.314        0.116
  WS02006239           JUNCTION        2.30          1.150        0.140
  WS02006240           JUNCTION        2.29          0.985        0.405
  WS02006242           JUNCTION        2.30          0.820        0.000
  WS02006243           JUNCTION        2.25          0.667        0.103
  WS02006245           JUNCTION        2.25          0.566        0.284
  WS02006247           JUNCTION        2.25          0.519        0.241
  WS02006248           JUNCTION        2.22          0.380        0.000
  WS02006249           JUNCTION        2.23          0.390        0.000
  WS02006251           JUNCTION        2.19          1.142        0.038
  WS02006252           JUNCTION        2.20          1.100        0.000
  WS02006253           JUNCTION        2.19          1.996        0.484
  WS02006256           JUNCTION        4.66          2.050        0.000
  WS02006280           JUNCTION        0.88          0.696        0.084
  WS02006284           JUNCTION        0.79          0.664        0.136
  WS02006287           JUNCTION        0.68          0.739        0.151
  YS02001580           JUNCTION        0.71          0.450        0.000
  YS02001583           JUNCTION        0.71          0.387        0.113
  YS02001586           JUNCTION        0.86          0.510        0.000
  YS02001590           JUNCTION        0.95          0.750        0.000
  YS02001593           JUNCTION        0.95          0.701        0.139
  YS02001596           JUNCTION        1.08          0.951        0.119
  YS02001600           JUNCTION        1.24          1.190        0.000
  YS02001601           JUNCTION        1.55          1.440        0.000
  YS02001602           JUNCTION        1.45          1.270        0.000
  YS02001605           JUNCTION        1.40          1.175        0.005
  YS02001607           JUNCTION        0.96          0.646        0.034
  YS02001610           JUNCTION        0.99          0.680        0.000
  YS02001613           JUNCTION        0.96          0.658        0.042
  YS02001616           JUNCTION        0.91          0.596        0.014
  YS02001619           JUNCTION        0.90          0.586        0.024
  YS02001622           JUNCTION        0.90          0.565        0.055
  YS02001625           JUNCTION        1.09          0.780        0.000
  YS02001629           JUNCTION        0.84          0.470        0.000
  YS02001633           JUNCTION        1.13          0.996        0.064
  YS02001641           JUNCTION        1.08          0.951        0.149
  YS02001644           JUNCTION        1.05          0.920        0.000
  YS02001647           JUNCTION        0.84          0.773        0.127
  YS02001649           JUNCTION        0.98          0.998        0.052
  YS02001652           JUNCTION        0.78          1.015        0.115
  YS02001655           JUNCTION        0.61          0.877        0.323
  YS02001658           JUNCTION        0.34          1.028        0.272
  YS02001661           JUNCTION        0.02          0.049        1.341
  YS02001748           JUNCTION        0.26          0.658        0.532
  YS02001751           JUNCTION        0.49          0.717        0.483
  YS02001754           JUNCTION        0.71          0.746        0.404
  YS02001757           JUNCTION        1.04          1.026        0.184
  YS02001759           JUNCTION        0.96          1.005        0.205
  YS02001762           JUNCTION        0.93          0.976        0.174
  YS02001765           JUNCTION        0.89          0.937        0.163
  YS02001767           JUNCTION        0.86          0.914        0.116
  YS02001770           JUNCTION        0.82          0.889        0.031
  YS02001774           JUNCTION        0.92          0.989        0.061
  YS02001779           JUNCTION        0.70          0.680        0.000
  YS02001783           JUNCTION        0.66          1.277        0.323
  YS02001784           JUNCTION        0.64          1.162        0.328
  YS02001786           JUNCTION        0.56          0.880        0.550
  YS02001788           JUNCTION        0.17          0.895        0.585
  YS02001790           JUNCTION        0.19          0.970        0.187
  YS02001791           JUNCTION        0.18          1.468        0.452
  YS02001793           JUNCTION        0.22          1.165        1.435
  YS02001882           JUNCTION        0.59          0.660        0.170
  YS02001884           JUNCTION        0.60          0.692        0.178
  YS02001887           JUNCTION        0.65          0.770        0.180
  YS02001890           JUNCTION        0.66          0.760        0.000
  YS02001895           JUNCTION        0.57          0.566        0.184
  YS02001898           JUNCTION        0.56          0.533        0.207
  YS02001901           JUNCTION        0.63          0.677        0.193
  YS02001904           JUNCTION        0.62          0.637        0.213
  YS02001907           JUNCTION        0.89          0.950        0.000
  YS02001910           JUNCTION        0.68          1.010        0.090
  YS02001915           JUNCTION        0.59          0.969        0.031
  YS02001918           JUNCTION        0.46          0.810        0.000
  YS02001920           JUNCTION        0.47          1.103        0.037
  YS02001923           JUNCTION        0.13          0.820        0.000
  YS02001926           JUNCTION        0.16          0.900        0.000
  YS02001929           JUNCTION        0.01          0.780        0.000
  YS02006553           JUNCTION        0.92          1.177        0.013
  YS02006556           JUNCTION        0.78          1.350        0.000
  YS02006558           JUNCTION        0.77          1.400        0.000
  YS02006561           JUNCTION        0.43          0.880        0.270
  YS02163301           JUNCTION        1.10          0.920        0.110
  YS02163601           JUNCTION        1.16          1.032        0.048
  YS02164001           JUNCTION        1.08          0.953        0.147
  YSB1154              JUNCTION        0.99          1.220        0.180
  YSB1171              JUNCTION        1.00          1.100        0.000
  YSB1174              JUNCTION        0.90          1.101        0.149
  YSB6556              JUNCTION        0.83          1.046        0.054
  
  
  *********************
  Node Flooding Summary
  *********************
  
  Flooding refers to all water that overflows a node, whether it ponds or not.
  --------------------------------------------------------------------------
                                                             Total   Maximum
                                 Maximum   Time of Max       Flood    Ponded
                        Hours       Rate    Occurrence      Volume     Depth
  Node                 Flooded       LPS   days hr:min    10^6 ltr    Meters
  --------------------------------------------------------------------------
  HS02004770              0.46   1097.20      0  02:15       0.821     0.000
  HS02004777              0.01     24.44      0  02:02       0.000     0.000
  HS02004785              0.01     69.13      0  02:02       0.000     0.000
  HS02004788              0.01    183.69      0  02:02       0.001     0.000
  HS02004792              0.44   1634.22      0  02:15       1.430     0.000
  HS02004799              0.23    201.91      0  02:15       0.104     0.000
  HS02004807              0.13    279.40      0  02:15       0.068     0.000
  HS02004824              0.01     17.46      0  02:06       0.000     0.000
  HS02004830              0.01     19.17      0  02:06       0.000     0.000
  HS02004837              0.01     57.87      0  02:06       0.000     0.000
  HS02004842              0.01    178.16      0  02:06       0.001     0.000
  HS02004848              0.01    337.74      0  02:06       0.001     0.000
  HS02004852              0.01    295.54      0  02:05       0.000     0.000
  HS02004856              0.01     13.37      0  02:06       0.000     0.000
  HS02004862              0.01    238.91      0  02:05       0.000     0.000
  HS02004870              0.01    291.49      0  02:05       0.000     0.000
  HS02004901              0.53    645.61      0  02:15       0.841     0.000
  WS02006109              0.50    288.72      0  02:15       0.311     0.000
  WS02006112              0.01   1153.65      0  00:00       0.035     0.000
  WS02006228              0.01      2.27      0  02:18       0.000     0.000
  WS02006230              0.80    573.49      0  02:13       1.130     0.000
  WS02006232              0.17      0.72      0  02:21       0.000     0.000
  WS02006234              0.86    128.49      0  02:05       0.278     0.000
  WS02006235              0.01     14.53      0  02:50       0.000     0.000
  WS02006242              0.95    137.53      0  02:42       0.420     0.000
  WS02006248              1.41    339.11      0  01:59       1.375     0.000
  WS02006249              2.09   1302.73      0  02:15       4.667     0.000
  WS02006252              0.56    676.03      0  02:15       0.693     0.000
  WS02006256              1.07    293.16      0  02:00       0.581     0.000
  YS02001580              0.01     47.32      0  02:01       0.000     0.000
  YS02001586              0.55    416.57      0  02:20       0.412     0.000
  YS02001590              0.01     10.03      0  02:01       0.000     0.000
  YS02001600              0.01      1.90      0  02:01       0.000     0.000
  YS02001601              0.79   1168.94      0  02:15       1.560     0.000
  YS02001602              0.68     62.00      0  02:35       0.142     0.000
  YS02001610              0.62    701.63      0  02:19       0.789     0.000
  YS02001625              0.59   1330.77      0  02:15       1.571     0.000
  YS02001629              0.05     13.93      0  02:07       0.001     0.000
  YS02001644              0.30   1005.53      0  02:15       0.549     0.000
  YS02001779              0.23    529.89      0  02:15       0.246     0.000
  YS02001890              0.18    235.39      0  02:15       0.082     0.000
  YS02001907              0.41   1864.09      0  02:15       1.460     0.000
  YS02001918              0.01    109.10      0  02:07       0.001     0.000
  YS02001923              0.01    127.02      0  02:07       0.000     0.000
  YS02001926              0.01     40.93      0  02:07       0.000     0.000
  YS02001929              0.01    244.29      0  02:07       0.000     0.000
  YS02006556              0.01     26.25      0  02:15       0.000     0.000
  YS02006558              0.01     13.59      0  02:15       0.000     0.000
  YSB1171                 0.35   1002.00      0  02:15       0.707     0.000
  JK-storage              0.16   1045.40      0  02:15       0.506     0.000
  
  
  **********************
  Storage Volume Summary
  **********************
  
  --------------------------------------------------------------------------------------------------
                         Average     Avg  Evap Exfil       Maximum     Max    Time of Max    Maximum
                          Volume    Pcnt  Pcnt  Pcnt        Volume    Pcnt     Occurrence    Outflow
  Storage Unit           1000 m3    Full  Loss  Loss       1000 m3    Full    days hr:min        LPS
  --------------------------------------------------------------------------------------------------
  CC-storage               2.552      40     0     0         5.270      82       0  02:39    1766.00
  JK-storage               0.118      40     0     0         0.291     100       0  02:15    2300.00
  XR-storage               0.908      63     0     0         1.039      72       0  06:00     190.00
  
  
  ***********************
  Outfall Loading Summary
  ***********************
  
  -----------------------------------------------------------
                         Flow       Avg       Max       Total
                         Freq      Flow      Flow      Volume
  Outfall Node           Pcnt       LPS       LPS    10^6 ltr
  -----------------------------------------------------------
  CC-1                  29.04    683.00    683.00       4.107
  CC-2                  29.04    683.00    683.00       4.107
  JK-1                  15.69    762.63   1000.00       2.234
  JK-2                  15.69    762.63   1000.00       2.234
  WSC                   99.99    675.05   1514.38      13.518
  -----------------------------------------------------------
  System                37.89   3566.32   1514.38      26.199
  
  
  ********************
  Link Flow Summary
  ********************
  
  -----------------------------------------------------------------------------
                                 Maximum  Time of Max   Maximum    Max/    Max/
                                  |Flow|   Occurrence   |Veloc|    Full    Full
  Link                 Type          LPS  days hr:min     m/sec    Flow   Depth
  -----------------------------------------------------------------------------
  1                    CONDUIT   1514.38     0  02:18      3.70    0.53    0.52
  HS02004478WS02006287 CONDUIT   2304.11     0  02:12      2.60    0.64    1.00
  HS02004479HS02004480 CONDUIT    394.78     0  02:06      0.56    0.38    1.00
  HS02004480HS02004478 CONDUIT   2060.08     0  02:05      2.94    8.68    1.00
  HS02004770HS02004777 CONDUIT    708.25     0  02:02      1.01    1.30    1.00
  HS02004777HS02004785 CONDUIT    725.79     0  02:02      1.09    0.89    1.00
  HS02004785HS02004788 CONDUIT    626.35     0  02:02      1.35    4.72    1.00
  HS02004788HS02004792 CONDUIT    840.42     0  02:03      1.46    0.56    1.00
  HS02004792HS02004799 CONDUIT   1563.26     0  02:04      2.23    0.96    1.00
  HS02004799HS02004480 CONDUIT   1710.14     0  02:05      2.44    2.16    1.00
  HS02004802HS02004478 CONDUIT   1233.59     0  02:16      1.76    1.09    1.00
  HS02004807HS02004802 CONDUIT   1233.25     0  02:15      1.76    2.35    1.00
  HS02004817HS02004807 CONDUIT   1065.58     0  02:15      1.52    0.63    1.00
  HS02004817HS02004824 CONDUIT   1063.84     0  02:15      1.52    0.48    1.00
  HS02004824HS02004830 CONDUIT    562.67     0  02:03      0.82    0.74    1.00
  HS02004830HS02004837 CONDUIT    582.91     0  02:03      0.92    0.58    1.00
  HS02004837HS02004842 CONDUIT    758.17     0  02:05      1.08    0.45    1.00
  HS02004842HS02004848 CONDUIT    756.48     0  02:05      1.14    0.44    1.00
  HS02004848HS02004852 CONDUIT    975.00     0  02:05      1.53    1.10    1.00
  HS02004852HS02004856 CONDUIT    910.39     0  02:05      1.43    1.04    1.00
  HS02004856HS02004862 CONDUIT    967.89     0  02:05      1.64    0.97    1.00
  HS02004862HS02004870 CONDUIT   1009.70     0  02:20      1.71    1.09    1.00
  HS02004870HS02004876 CONDUIT   1229.98     0  02:15      1.76    0.82    1.00
  HS02004876HS02004881 CONDUIT   1472.81     0  02:15      2.10   15.67    1.00
  HS02004881HS02006253 CONDUIT   1605.43     0  02:15      2.29    0.31    1.00
  HS02004901HS02004770 CONDUIT    265.79     0  02:30      0.38    1.00    1.00
  WS02001211WS02001212 CONDUIT    211.63     0  03:16      0.54    0.16    0.69
  WS02001212WS02001213 CONDUIT    214.86     0  03:16      1.04    0.33    0.56
  WS02001213WS02003059 CONDUIT    219.95     0  03:15      0.47    0.36    0.90
  WS02003059WS02003060 CONDUIT    225.44     0  03:15      0.67    0.15    0.81
  WS02003060WS02003069 CONDUIT   1512.38     0  02:16      2.09    0.59    0.61
  WS02003066WSF200     CONDUIT   1310.19     0  02:15      3.25    0.22    0.39
  WS02003067WS02003066 CONDUIT   1310.10     0  02:15      2.01    0.42    0.56
  WS02003069WS02003072 CONDUIT   1512.37     0  02:17      1.90    0.73    0.66
  WS02003072WS02003073 CONDUIT   1512.45     0  02:17      2.06    3.27    0.62
  WS02004138WS02004139 CONDUIT    191.01     0  00:29      2.14    0.04    0.42
  WS02004139WS02001211 CONDUIT    198.11     0  03:16      0.53    0.25    0.61
  WS02004401WS02004402 CONDUIT   1311.09     0  02:15      2.07    1.57    1.00
  WS02004402WS02004403 CONDUIT   1311.23     0  02:15      1.84    1.88    1.00
  WS02004403WS02004404 CONDUIT   1311.84     0  02:15      1.67    0.95    1.00
  WS02004404WS02004405 CONDUIT   1312.51     0  02:15      1.85   12.86    1.00
  WS02004405WS02004406 CONDUIT   1312.24     0  02:15      1.73    2.59    1.00
  WS02004406WS02004407 CONDUIT   1312.95     0  02:15      1.70    0.59    0.97
  WS02004407WS02004409 CONDUIT   1309.56     0  02:15      1.73    0.46    0.97
  WS02004409WS02004410 CONDUIT   1309.90     0  02:15      1.67    1.69    1.00
  WS02004410WS02004411 CONDUIT   1310.27     0  02:15      1.67    1.79    1.00
  WS02004411WS02004412 CONDUIT   1309.83     0  02:15      1.67    1.86    1.00
  WS02004412WS02004413 CONDUIT   1309.94     0  02:15      1.67    0.88    1.00
  WS02004413WS02003067 CONDUIT   1309.96     0  02:15      2.02    0.56    0.77
  WS02006109WS02006110 CONDUIT   1306.78     0  00:00      3.15    2.51    1.00
  WS02006110WS02006113 CONDUIT   1125.14     0  02:34      2.24    1.02    1.00
  WS02006111WS02006112 CONDUIT   2307.30     0  00:00      9.18    1.10    1.00
  WS02006112WS02006115 CONDUIT   2152.75     0  00:00      2.85    1.27    1.00
  WS02006113WS02006111 CONDUIT   1176.04     0  00:00      2.63    1.41    1.00
  WS02006115WS02006116 CONDUIT   1310.36     0  02:15      1.81    1.68    1.00
  WS02006116WS02004401 CONDUIT   1310.85     0  02:15      2.21    1.81    1.00
  WS02006228WS02006109 CONDUIT   1287.85     0  02:13      2.56    5.63    1.00
  WS02006229WS02006228 CONDUIT   1289.15     0  02:18      2.56    4.27    1.00
  WS02006230WS02006229 CONDUIT   1015.80     0  02:13      2.64   22.61    1.00
  WS02006231WS02006230 CONDUIT    453.27     0  02:03      1.30    6.88    1.00
  WS02006232WS02006231 CONDUIT    453.39     0  02:40      1.18    0.95    1.00
  WS02006234WS02006232 CONDUIT    453.10     0  02:40      1.18    0.92    1.00
  WS02006235WS02006234 CONDUIT    419.66     0  03:45      1.09    4.43    1.00
  WS02006238WS02006235 CONDUIT    419.53     0  03:45      1.22    0.94    1.00
  WS02006239WS02006238 CONDUIT    419.42     0  03:45      1.09    1.34    1.00
  WS02006240WS02006239 CONDUIT    419.38     0  03:45      1.09    1.32    1.00
  WS02006242WS02006240 CONDUIT    419.32     0  03:45      1.09    1.67    1.00
  WS02006243WS02006242 CONDUIT    419.28     0  03:45      1.13    0.90    1.00
  WS02006245WS02006243 CONDUIT    419.24     0  03:45      1.13    1.24    1.00
  WS02006247WS02006245 CONDUIT    419.19     0  03:45      1.09    3.32    1.00
  WS02006248WS02006247 CONDUIT    419.13     0  03:45      1.12    0.91    1.00
  WS02006249WS02006248 CONDUIT    419.05     0  03:45      1.09    2.30    1.00
  WS02006251WS02006249 CONDUIT   1363.91     0  02:15      3.54    3.93    1.00
  WS02006252WS02006251 CONDUIT    416.41     0  02:00      3.31    1.53    1.00
  WS02006253WS02006251 CONDUIT   1639.09     0  02:15      4.26    4.91    1.00
  WS02006256WS02006235 CONDUIT    270.25     0  04:10      3.83    2.86    1.00
  WS02006280WS02006229 CONDUIT   2305.59     0  02:13      4.01    0.49    1.00
  WS02006284WS02006280 CONDUIT   2304.15     0  02:12      3.02    0.96    1.00
  WS02006287WS02006284 CONDUIT   2303.56     0  02:13      2.93    1.07    1.00
  WSF200WS02003060     CONDUIT   1310.02     0  02:16      2.29    0.29    0.50
  YS02001580YS02001583 CONDUIT     71.81     0  02:01      0.51    0.28    1.00
  YS02001583YS02001586 CONDUIT    119.49     0  02:00      0.53    0.18    1.00
  YS02001586YS02001590 CONDUIT    317.92     0  02:30      1.24    0.56    1.00
  YS02001590YS02001593 CONDUIT    318.01     0  02:33      1.12    2.00    1.00
  YS02001593YS02001596 CONDUIT    318.01     0  02:34      1.71    0.50    1.00
  YS02001596YS02001600 CONDUIT    318.05     0  02:16      1.26    0.62    1.00
  YS02001600YS02001601 CONDUIT    317.85     0  02:30      1.12    0.55    1.00
  YS02001601YS02001602 CONDUIT    494.14     0  02:00      1.75    1.78    1.00
  YS02001602YS02001605 CONDUIT    494.65     0  02:00      1.75   10.47    1.00
  YS02001605YS02001607 CONDUIT    495.96     0  02:00      1.75    2.72    1.00
  YS02001607YS02001610 CONDUIT    499.13     0  02:00      0.64    0.47    1.00
  YS02001610YS02001613 CONDUIT    501.74     0  02:00      0.64    0.58    1.00
  YS02001613YS02001616 CONDUIT    503.83     0  02:00      0.64    0.43    1.00
  YS02001616YS02001619 CONDUIT    504.48     0  02:00      0.67    0.88    1.00
  YS02001619YS02001622 CONDUIT    931.37     0  02:15      1.19    1.37    1.00
  YS02001622YS02001625 CONDUIT    932.06     0  02:15      1.19    0.50    1.00
  YS02001625YS02001629 CONDUIT    903.58     0  02:04      1.15    0.43    1.00
  YS02001629YS02163301 CONDUIT    902.22     0  02:04      1.15    1.11    1.00
  YS02001633YS02163601 CONDUIT   1271.02     0  02:04      1.62    1.33    1.00
  YS02001641YS02001644 CONDUIT   1269.60     0  02:04      1.62    4.10    1.00
  YS02001644YS02001647 CONDUIT   1615.56     0  02:05      2.11    0.95    1.00
  YS02001647YS02001649 CONDUIT   1622.17     0  02:04      2.29    0.86    1.00
  YS02001649YS02001757 CONDUIT   1770.50     0  02:03      2.33    1.07    1.00
  YS02001652YS02001649 CONDUIT    830.06     0  02:15      1.06    0.41    1.00
  YS02001655YS02001652 CONDUIT    829.99     0  02:15      1.29    0.40    1.00
  YS02001658YS02001655 CONDUIT    829.74     0  02:15      1.81    0.35    1.00
  YS02001661YS02001658 CONDUIT    829.98     0  02:15      2.15    0.33    1.00
  YS02001664YS02001661 CONDUIT    825.23     0  02:15      2.08    0.26    0.76
  YS02001745YS02001748 CONDUIT    514.36     0  02:15      1.99    0.20    0.91
  YS02001748YS02001751 CONDUIT    515.30     0  02:15      1.60    0.26    1.00
  YS02001751YS02001754 CONDUIT    515.62     0  02:15      1.40    0.25    1.00
  YS02001754YS02001757 CONDUIT    515.63     0  02:15      0.66    0.21    1.00
  YS02001757CaochengTiaoxuchi CONDUIT   2927.50     0  02:12      3.73    1.27    1.00
  YS02001759YS02001757 CONDUIT   1200.58     0  02:13      1.53    0.85    1.00
  YS02001762YS02001759 CONDUIT    668.25     0  02:10      0.85    0.77    1.00
  YS02001765YS02001762 CONDUIT    667.56     0  02:10      0.85    0.63    1.00
  YS02001767YS02001765 CONDUIT    666.42     0  02:10      0.85    0.84    1.00
  YS02001770YS02001767 CONDUIT    666.03     0  02:10      0.85    2.64    1.00
  YS02001774YS02001770 CONDUIT    529.74     0  02:15      0.67    0.34    1.00
  YS02001779YS02001774 CONDUIT    530.49     0  02:15      0.68    0.27    1.00
  YS02001783YS02001784 CONDUIT   1161.36     0  02:13      2.31    1.60    1.00
  YS02001784YS02001785 CONDUIT   1162.14     0  02:13      2.31    2.70    1.00
  YS02001786YS02001788 CONDUIT   1163.20     0  02:15      2.48    2.24    1.00
  YS02001788YS02001790 CONDUIT   1204.60     0  02:21      2.72    0.89    1.00
  YS02001790YS02001791 CONDUIT   1357.80     0  02:21      3.46    1.48    1.00
  YS02001791YS02001793 CONDUIT   1412.71     0  02:21      6.76    0.61    1.00
  YS02001793JiankangQianchi CONDUIT   1699.72     0  02:21     24.64    0.14    1.00
  YS02001882YS02001884 CONDUIT     34.44     0  02:04      0.13    0.04    1.00
  YS02001884YS02001887 CONDUIT     41.14     0  02:02      0.10    0.05    1.00
  YS02001887YS02001890 CONDUIT    750.66     0  02:15      0.96    1.28    1.00
  YS02001890YS02001895 CONDUIT    518.30     0  02:17      0.66    0.24    1.00
  YS02001895YS02001898 CONDUIT    517.74     0  02:20      0.66    0.90    1.00
  YS02001898YS02001901 CONDUIT    518.33     0  02:17      0.66    0.33    1.00
  YS02001901YS02001904 CONDUIT    518.11     0  02:17      0.66    0.80    1.00
  YS02001904YS02001907 CONDUIT    517.85     0  02:17      0.66    0.18    1.00
  YS02001907YS02006553 CONDUIT    798.17     0  02:32      0.89    0.94    1.00
  YS02001910YS02001907 CONDUIT   1350.50     0  02:15      1.72    0.76    1.00
  YS02001915YS02001910 CONDUIT   1350.50     0  02:15      1.72    0.67    1.00
  YS02001918YS02001915 CONDUIT    451.42     0  02:15      0.57    0.25    1.00
  YS02001920YS02001918 CONDUIT    451.70     0  02:15      0.64    0.44    1.00
  YS02001923YS02001920 CONDUIT    448.67     0  02:15      0.69    0.20    1.00
  YS02001926YS02001923 CONDUIT    448.37     0  02:15      0.94    0.64    1.00
  YS02001929YS02001926 CONDUIT    448.29     0  02:15      1.06    0.21    1.00
  YS02006553YS02006556 CONDUIT    797.90     0  02:32      1.02    0.68    1.00
  YS02006556YS02006558 CONDUIT    800.37     0  02:32      1.02    0.63    1.00
  YS02006558YS02006561 CONDUIT   1161.39     0  02:13      4.11    2.57    1.00
  YS02006561YS02001783 CONDUIT   1161.13     0  02:13      2.31    0.60    1.00
  YS02163301YS02001633 CONDUIT    902.39     0  02:03      1.15    0.85    1.00
  YS02163601YS02164001 CONDUIT   1270.37     0  02:04      1.62    1.13    1.00
  YS02164001YS02001641 CONDUIT   1270.02     0  02:04      1.62    1.73    1.00
  YSB1154YSB6556       CONDUIT    417.70     0  02:15      1.09    0.75    1.00
  YSB1171HS02004479    CONDUIT    394.81     0  02:06      0.79    0.26    1.00
  YSB1174YSB1171       CONDUIT    352.20     0  02:15      0.92    0.54    1.00
  YSB6556YSB1171       CONDUIT    418.27     0  02:15      1.09    0.43    1.00
  CC-R1                PUMP       683.00     0  02:10              1.00
  CC-R2                PUMP       683.00     0  02:10              1.00
  CC-S1                PUMP       200.00     0  00:40              1.00
  CC-S2                PUMP       200.00     0  02:00              1.00
  JK-R1                PUMP      1000.00     0  01:40              1.00
  JK-R2                PUMP      1000.00     0  01:40              1.00
  JK-S                 PUMP       300.00     0  01:40              1.00
  XR-1                 PUMP        95.00     0  00:10              1.00
  XR-2                 PUMP        95.00     0  00:29              1.00
  XR-3                 PUMP         0.00     0  00:00              0.00
  XR-4                 PUMP         0.00     0  00:00              0.00
  
  
  ***************************
  Flow Classification Summary
  ***************************
  
  -------------------------------------------------------------------------------------
                      Adjusted    ---------- Fraction of Time in Flow Class ---------- 
                       /Actual         Up    Down  Sub   Sup   Up    Down  Norm  Inlet 
  Conduit               Length    Dry  Dry   Dry   Crit  Crit  Crit  Crit  Ltd   Ctrl  
  -------------------------------------------------------------------------------------
  1                       1.00   0.00  0.00  0.00  0.00  1.00  0.00  0.00  0.44  0.00
  HS02004478WS02006287    1.00   0.27  0.00  0.00  0.41  0.32  0.00  0.00  0.44  0.00
  HS02004479HS02004480    1.00   0.01  0.00  0.00  0.99  0.00  0.00  0.00  0.15  0.00
  HS02004480HS02004478    1.00   0.18  0.00  0.00  0.33  0.00  0.00  0.49  0.00  0.00
  HS02004770HS02004777    1.00   0.00  0.17  0.00  0.83  0.00  0.00  0.00  0.03  0.00
  HS02004777HS02004785    1.00   0.00  0.00  0.00  1.00  0.00  0.00  0.00  0.15  0.00
  HS02004785HS02004788    1.00   0.00  0.00  0.00  1.00  0.00  0.00  0.00  0.00  0.00
  HS02004788HS02004792    1.00   0.00  0.00  0.00  1.00  0.00  0.00  0.00  0.85  0.00
  HS02004792HS02004799    1.00   0.00  0.00  0.00  1.00  0.00  0.00  0.00  0.79  0.00
  HS02004799HS02004480    1.00   0.00  0.01  0.00  0.74  0.00  0.25  0.00  0.00  0.00
  HS02004802HS02004478    1.00   0.18  0.02  0.00  0.80  0.00  0.00  0.00  0.03  0.00
  HS02004807HS02004802    1.00   0.17  0.00  0.00  0.77  0.00  0.00  0.06  0.00  0.00
  HS02004817HS02004807    1.00   0.00  0.17  0.00  0.83  0.00  0.00  0.00  0.01  0.00
  HS02004817HS02004824    1.00   0.00  0.00  0.00  1.00  0.00  0.00  0.00  0.74  0.00
  HS02004824HS02004830    1.00   0.00  0.00  0.00  1.00  0.00  0.00  0.00  0.01  0.00
  HS02004830HS02004837    1.00   0.00  0.00  0.00  1.00  0.00  0.00  0.00  0.82  0.00
  HS02004837HS02004842    1.00   0.00  0.00  0.00  1.00  0.00  0.00  0.00  0.14  0.00
  HS02004842HS02004848    1.00   0.00  0.17  0.00  0.83  0.00  0.00  0.00  0.39  0.00
  HS02004848HS02004852    1.00   0.17  0.00  0.00  0.83  0.00  0.00  0.00  0.59  0.00
  HS02004852HS02004856    1.00   0.16  0.03  0.00  0.80  0.00  0.00  0.00  0.55  0.00
  HS02004856HS02004862    1.00   0.00  0.29  0.00  0.71  0.00  0.00  0.00  0.64  0.00
  HS02004862HS02004870    1.00   0.00  0.00  0.00  1.00  0.00  0.00  0.00  0.04  0.00
  HS02004870HS02004876    1.00   0.00  0.00  0.00  1.00  0.00  0.00  0.00  0.80  0.00
  HS02004876HS02004881    1.00   0.00  0.00  0.00  0.76  0.24  0.00  0.00  0.00  0.00
  HS02004881HS02006253    1.00   0.02  0.00  0.00  0.79  0.00  0.00  0.19  0.40  0.00
  HS02004901HS02004770    1.00   0.16  0.00  0.00  0.83  0.00  0.00  0.00  0.00  0.00
  WS02001211WS02001212    1.00   0.00  0.01  0.00  0.99  0.00  0.00  0.00  0.00  0.00
  WS02001212WS02001213    1.00   0.01  0.00  0.00  0.50  0.00  0.49  0.00  0.00  0.00
  WS02001213WS02003059    1.00   0.00  0.00  0.00  1.00  0.00  0.00  0.00  0.00  0.00
  WS02003059WS02003060    1.00   0.00  0.00  0.00  1.00  0.00  0.00  0.00  0.04  0.00
  WS02003060WS02003069    1.00   0.00  0.00  0.00  0.99  0.01  0.00  0.00  0.31  0.00
  WS02003066WSF200        1.00   0.12  0.00  0.00  0.00  0.88  0.00  0.00  0.43  0.00
  WS02003067WS02003066    1.00   0.03  0.07  0.00  0.90  0.00  0.00  0.00  0.00  0.00
  WS02003069WS02003072    1.00   0.00  0.00  0.00  1.00  0.00  0.00  0.00  0.41  0.00
  WS02003072WS02003073    1.00   0.00  0.00  0.00  0.00  0.00  0.00  1.00  0.00  0.00
  WS02004138WS02004139    1.00   0.01  0.00  0.00  0.99  0.00  0.00  0.00  0.97  0.00
  WS02004139WS02001211    1.00   0.00  0.00  0.00  1.00  0.00  0.00  0.00  0.01  0.00
  WS02004401WS02004402    1.00   0.00  0.00  0.00  1.00  0.00  0.00  0.00  0.00  0.00
  WS02004402WS02004403    1.00   0.00  0.00  0.00  1.00  0.00  0.00  0.00  0.00  0.00
  WS02004403WS02004404    1.00   0.00  0.00  0.00  1.00  0.00  0.00  0.00  0.00  0.00
  WS02004404WS02004405    1.00   0.00  0.00  0.00  1.00  0.00  0.00  0.00  0.00  0.00
  WS02004405WS02004406    1.00   0.00  0.00  0.00  1.00  0.00  0.00  0.00  0.00  0.00
  WS02004406WS02004407    1.00   0.00  0.00  0.00  1.00  0.00  0.00  0.00  0.01  0.00
  WS02004407WS02004409    1.00   0.00  0.00  0.00  1.00  0.00  0.00  0.00  0.79  0.00
  WS02004409WS02004410    1.00   0.00  0.00  0.00  1.00  0.00  0.00  0.00  0.05  0.00
  WS02004410WS02004411    1.00   0.00  0.00  0.00  1.00  0.00  0.00  0.00  0.03  0.00
  WS02004411WS02004412    1.00   0.00  0.00  0.00  1.00  0.00  0.00  0.00  0.01  0.00
  WS02004412WS02004413    1.00   0.00  0.00  0.00  1.00  0.00  0.00  0.00  0.02  0.00
  WS02004413WS02003067    1.00   0.01  0.02  0.00  0.00  0.00  0.97  0.00  0.00  0.00
  WS02006109WS02006110    1.00   0.00  0.00  0.00  1.00  0.00  0.00  0.00  0.00  0.00
  WS02006110WS02006113    1.00   0.00  0.00  0.00  1.00  0.00  0.00  0.00  0.00  0.00
  WS02006111WS02006112    1.00   0.00  0.00  0.00  1.00  0.00  0.00  0.00  0.69  0.00
  WS02006112WS02006115    1.00   0.00  0.00  0.00  1.00  0.00  0.00  0.00  0.00  0.00
  WS02006113WS02006111    1.00   0.00  0.00  0.00  0.29  0.71  0.00  0.00  0.12  0.00
  WS02006115WS02006116    1.00   0.00  0.00  0.00  1.00  0.00  0.00  0.00  0.00  0.00
  WS02006116WS02004401    1.00   0.00  0.00  0.00  1.00  0.00  0.00  0.00  0.00  0.00
  WS02006228WS02006109    1.00   0.00  0.00  0.00  1.00  0.00  0.00  0.00  0.00  0.00
  WS02006229WS02006228    1.00   0.00  0.00  0.00  1.00  0.00  0.00  0.00  0.00  0.00
  WS02006230WS02006229    1.00   0.00  0.00  0.00  1.00  0.00  0.00  0.00  0.02  0.00
  WS02006231WS02006230    1.00   0.00  0.00  0.00  0.52  0.00  0.48  0.00  0.00  0.00
  WS02006232WS02006231    1.00   0.00  0.00  0.00  0.98  0.00  0.01  0.00  0.01  0.00
  WS02006234WS02006232    1.00   0.00  0.00  0.00  1.00  0.00  0.00  0.00  0.17  0.00
  WS02006235WS02006234    1.00   0.06  0.00  0.00  0.85  0.00  0.08  0.00  0.00  0.00
  WS02006238WS02006235    1.00   0.06  0.01  0.00  0.93  0.01  0.00  0.00  0.00  0.00
  WS02006239WS02006238    1.00   0.05  0.00  0.00  0.94  0.00  0.00  0.01  0.17  0.00
  WS02006240WS02006239    1.00   0.05  0.00  0.00  0.84  0.00  0.00  0.11  0.00  0.00
  WS02006242WS02006240    1.00   0.02  0.03  0.00  0.94  0.00  0.02  0.00  0.00  0.00
  WS02006243WS02006242    1.00   0.01  0.00  0.00  0.94  0.00  0.00  0.05  0.28  0.00
  WS02006245WS02006243    1.00   0.01  0.00  0.00  0.89  0.00  0.00  0.10  0.00  0.00
  WS02006247WS02006245    1.00   0.01  0.00  0.00  0.95  0.00  0.00  0.04  0.00  0.00
  WS02006248WS02006247    1.00   0.01  0.00  0.00  0.96  0.00  0.00  0.03  0.31  0.00
  WS02006249WS02006248    1.00   0.00  0.01  0.00  0.82  0.00  0.18  0.00  0.00  0.00
  WS02006251WS02006249    1.00   0.00  0.00  0.00  1.00  0.00  0.00  0.00  0.42  0.00
  WS02006252WS02006251    1.00   0.03  0.00  0.00  0.39  0.00  0.58  0.00  0.00  0.00
  WS02006253WS02006251    1.00   0.01  0.01  0.00  0.97  0.00  0.01  0.00  0.00  0.00
  WS02006256WS02006235    1.00   0.06  0.00  0.00  0.93  0.01  0.00  0.00  0.00  0.00
  WS02006280WS02006229    1.00   0.21  0.00  0.00  0.26  0.03  0.00  0.51  0.00  0.00
  WS02006284WS02006280    1.00   0.21  0.00  0.00  0.18  0.01  0.00  0.61  0.00  0.00
  WS02006287WS02006284    1.00   0.09  0.18  0.00  0.30  0.43  0.00  0.00  0.53  0.00
  WSF200WS02003060        1.00   0.00  0.12  0.00  0.41  0.47  0.00  0.00  0.39  0.00
  YS02001580YS02001583    1.00   0.49  0.21  0.00  0.31  0.00  0.00  0.00  0.51  0.00
  YS02001583YS02001586    1.00   0.21  0.43  0.00  0.36  0.00  0.00  0.00  0.52  0.00
  YS02001586YS02001590    1.00   0.16  0.00  0.00  0.64  0.05  0.00  0.14  0.48  0.00
  YS02001590YS02001593    1.00   0.17  0.02  0.00  0.20  0.00  0.61  0.00  0.00  0.00
  YS02001593YS02001596    1.00   0.19  0.00  0.00  0.23  0.01  0.00  0.57  0.03  0.00
  YS02001596YS02001600    1.00   0.19  0.00  0.00  0.33  0.03  0.00  0.45  0.06  0.00
  YS02001600YS02001601    1.00   0.18  0.03  0.00  0.80  0.00  0.00  0.00  0.46  0.00
  YS02001601YS02001602    1.00   0.16  0.03  0.00  0.81  0.00  0.00  0.00  0.00  0.00
  YS02001602YS02001605    1.00   0.19  0.00  0.00  0.81  0.00  0.00  0.00  0.00  0.00
  YS02001605YS02001607    1.00   0.20  0.00  0.00  0.80  0.00  0.00  0.00  0.00  0.00
  YS02001607YS02001610    1.00   0.18  0.02  0.00  0.79  0.00  0.00  0.00  0.02  0.00
  YS02001610YS02001613    1.00   0.18  0.00  0.00  0.82  0.00  0.00  0.00  0.01  0.00
  YS02001613YS02001616    1.00   0.17  0.00  0.00  0.83  0.00  0.00  0.00  0.01  0.00
  YS02001616YS02001619    1.00   0.16  0.00  0.00  0.84  0.00  0.00  0.00  0.00  0.00
  YS02001619YS02001622    1.00   0.16  0.00  0.00  0.84  0.00  0.00  0.00  0.05  0.00
  YS02001622YS02001625    1.00   0.17  0.00  0.00  0.83  0.00  0.00  0.00  0.05  0.00
  YS02001625YS02001629    1.00   0.17  0.15  0.00  0.27  0.00  0.41  0.00  0.00  0.00
  YS02001629YS02163301    1.00   0.25  0.04  0.00  0.72  0.00  0.00  0.00  0.00  0.00
  YS02001633YS02163601    1.00   0.00  0.00  0.00  1.00  0.00  0.00  0.00  0.19  0.00
  YS02001641YS02001644    1.00   0.00  0.00  0.00  1.00  0.00  0.00  0.00  0.00  0.00
  YS02001644YS02001647    1.00   0.00  0.30  0.00  0.70  0.00  0.00  0.00  0.00  0.00
  YS02001647YS02001649    1.00   0.00  0.31  0.00  0.42  0.27  0.00  0.00  0.41  0.00
  YS02001649YS02001757    1.00   0.00  0.00  0.00  0.71  0.29  0.00  0.00  0.43  0.00
  YS02001652YS02001649    1.00   0.00  0.00  0.00  0.89  0.11  0.00  0.00  0.63  0.00
  YS02001655YS02001652    1.00   0.00  0.00  0.00  0.30  0.01  0.00  0.69  0.05  0.00
  YS02001658YS02001655    1.00   0.00  0.21  0.00  0.42  0.37  0.00  0.00  0.53  0.00
  YS02001661YS02001658    1.00   0.21  0.00  0.00  0.27  0.52  0.00  0.00  0.54  0.00
  YS02001664YS02001661    1.00   0.16  0.00  0.00  0.69  0.15  0.00  0.00  0.79  0.00
  YS02001745YS02001748    1.00   0.00  0.00  0.00  0.19  0.00  0.00  0.81  0.05  0.00
  YS02001748YS02001751    1.00   0.00  0.00  0.00  0.64  0.36  0.00  0.00  0.64  0.00
  YS02001751YS02001754    1.00   0.00  0.00  0.00  0.27  0.01  0.00  0.72  0.03  0.00
  YS02001754YS02001757    1.00   0.00  0.00  0.00  1.00  0.00  0.00  0.00  0.73  0.00
  YS02001757CaochengTiaoxuchi    1.00   0.00  0.00  0.00  1.00  0.00  0.00  0.00  0.62  0.00
  YS02001759YS02001757    1.00   0.00  0.00  0.00  0.98  0.02  0.00  0.00  0.54  0.00
  YS02001762YS02001759    1.00   0.00  0.00  0.00  1.00  0.00  0.00  0.00  0.06  0.00
  YS02001765YS02001762    1.00   0.00  0.00  0.00  1.00  0.00  0.00  0.00  0.59  0.00
  YS02001767YS02001765    1.00   0.00  0.00  0.00  1.00  0.00  0.00  0.00  0.00  0.00
  YS02001770YS02001767    1.00   0.00  0.00  0.00  1.00  0.00  0.00  0.00  0.00  0.00
  YS02001774YS02001770    1.00   0.00  0.19  0.00  0.81  0.00  0.00  0.00  0.04  0.00
  YS02001779YS02001774    1.00   0.00  0.00  0.00  1.00  0.00  0.00  0.00  0.66  0.00
  YS02001783YS02001784    1.00   0.00  0.33  0.00  0.67  0.00  0.00  0.00  0.40  0.00
  YS02001784YS02001785    1.00   0.00  0.00  0.00  1.00  0.00  0.00  0.00  0.22  0.00
  YS02001786YS02001788    1.00   0.00  0.00  0.00  0.67  0.33  0.00  0.00  0.00  0.00
  YS02001788YS02001790    1.00   0.00  0.00  0.00  0.43  0.57  0.00  0.00  0.72  0.00
  YS02001790YS02001791    1.00   0.00  0.00  0.00  0.04  0.96  0.00  0.00  0.20  0.00
  YS02001791YS02001793    1.00   0.00  0.00  0.00  0.03  0.97  0.00  0.00  0.02  0.00
  YS02001793JiankangQianchi    1.00   0.00  0.00  0.00  0.83  0.17  0.00  0.00  0.82  0.00
  YS02001882YS02001884    1.00   0.24  0.03  0.00  0.73  0.00  0.00  0.00  0.00  0.00
  YS02001884YS02001887    1.00   0.02  0.11  0.00  0.87  0.00  0.00  0.00  0.00  0.00
  YS02001887YS02001890    1.00   0.00  0.00  0.00  0.99  0.00  0.01  0.00  0.00  0.00
  YS02001890YS02001895    1.00   0.00  0.28  0.00  0.72  0.00  0.00  0.00  0.00  0.00
  YS02001895YS02001898    1.00   0.28  0.01  0.00  0.66  0.00  0.05  0.00  0.00  0.00
  YS02001898YS02001901    1.00   0.29  0.00  0.00  0.71  0.00  0.00  0.00  0.01  0.00
  YS02001901YS02001904    1.00   0.29  0.00  0.00  0.71  0.00  0.00  0.00  0.00  0.00
  YS02001904YS02001907    1.00   0.00  0.29  0.00  0.71  0.00  0.00  0.00  0.00  0.00
  YS02001907YS02006553    1.00   0.00  0.01  0.00  0.99  0.00  0.00  0.00  0.00  0.00
  YS02001910YS02001907    1.00   0.00  0.00  0.00  0.99  0.00  0.00  0.01  0.16  0.00
  YS02001915YS02001910    1.00   0.00  0.00  0.00  0.92  0.08  0.00  0.00  0.19  0.00
  YS02001918YS02001915    1.00   0.00  0.00  0.00  1.00  0.00  0.00  0.00  0.65  0.00
  YS02001920YS02001918    1.00   0.00  0.00  0.00  1.00  0.00  0.00  0.00  0.01  0.00
  YS02001923YS02001920    1.00   0.00  0.00  0.00  1.00  0.00  0.00  0.00  0.88  0.00
  YS02001926YS02001923    1.00   0.00  0.02  0.00  0.11  0.00  0.87  0.00  0.00  0.00
  YS02001929YS02001926    1.00   0.00  0.16  0.00  0.84  0.00  0.00  0.00  0.75  0.00
  YS02006553YS02006556    1.00   0.00  0.00  0.00  1.00  0.00  0.00  0.00  0.04  0.00
  YS02006556YS02006558    1.00   0.00  0.00  0.00  1.00  0.00  0.00  0.00  0.00  0.00
  YS02006558YS02006561    1.00   0.33  0.00  0.00  0.11  0.57  0.00  0.00  0.24  0.00
  YS02006561YS02001783    1.00   0.33  0.00  0.00  0.15  0.52  0.00  0.00  0.56  0.00
  YS02163301YS02001633    1.00   0.00  0.24  0.00  0.76  0.00  0.00  0.00  0.00  0.00
  YS02163601YS02164001    1.00   0.00  0.03  0.00  0.97  0.00  0.00  0.00  0.00  0.00
  YS02164001YS02001641    1.00   0.00  0.02  0.00  0.97  0.00  0.00  0.00  0.07  0.00
  YSB1154YSB6556          1.00   0.16  0.00  0.00  0.84  0.00  0.00  0.00  0.02  0.00
  YSB1171HS02004479       1.00   0.01  0.00  0.00  0.98  0.00  0.00  0.00  0.13  0.00
  YSB1174YSB1171          1.00   0.02  0.04  0.00  0.94  0.00  0.00  0.00  0.00  0.00
  YSB6556YSB1171          1.00   0.01  0.15  0.00  0.84  0.00  0.00  0.00  0.00  0.00
  
  
  *************************
  Conduit Surcharge Summary
  *************************
  
  ----------------------------------------------------------------------------
                                                           Hours        Hours 
                         --------- Hours Full --------   Above Full   Capacity
  Conduit                Both Ends  Upstream  Dnstream   Normal Flow   Limited
  ----------------------------------------------------------------------------
  HS02004478WS02006287        0.57      0.57      0.76      0.01         0.01
  HS02004479HS02004480        0.76      0.76      0.79      0.01         0.01
  HS02004480HS02004478        0.68      0.75      0.68      1.76         0.68
  HS02004770HS02004777        0.65      0.65      0.66      0.12         0.07
  HS02004777HS02004785        0.60      0.60      0.66      0.01         0.01
  HS02004785HS02004788        0.59      0.60      0.59      1.52         0.54
  HS02004788HS02004792        0.59      0.59      0.72      0.01         0.01
  HS02004792HS02004799        0.72      0.72      0.86      0.01         0.01
  HS02004799HS02004480        0.75      0.75      0.86      0.96         0.01
  HS02004802HS02004478        0.70      0.70      0.78      0.14         0.01
  HS02004807HS02004802        0.75      0.75      0.77      0.32         0.33
  HS02004817HS02004807        0.75      0.75      1.35      0.01         0.01
  HS02004817HS02004824        0.60      0.60      1.35      0.01         0.01
  HS02004824HS02004830        0.56      0.56      0.60      0.01         0.01
  HS02004830HS02004837        0.52      0.52      0.56      0.01         0.01
  HS02004837HS02004842        0.52      0.52      0.67      0.01         0.01
  HS02004842HS02004848        0.49      0.49      0.67      0.01         0.01
  HS02004848HS02004852        0.49      0.49      0.51      0.02         0.01
  HS02004852HS02004856        0.51      0.51      0.54      0.01         0.01
  HS02004856HS02004862        0.51      0.51      0.54      0.01         0.01
  HS02004862HS02004870        0.54      0.54      0.56      0.24         0.24
  HS02004870HS02004876        0.56      0.56      0.64      0.01         0.01
  HS02004876HS02004881        0.62      0.64      0.62      1.55         0.62
  HS02004881HS02006253        0.62      0.62      2.19      0.01         0.01
  HS02004901HS02004770        0.65      0.65      0.66      0.03         0.01
  WS02003072WS02003073        0.01      0.01      0.01      2.72         0.01
  WS02004401WS02004402        1.69      1.69      1.74      1.52         1.52
  WS02004402WS02004403        1.74      1.74      1.74      1.68         1.68
  WS02004403WS02004404        1.74      1.74      1.94      0.01         0.02
  WS02004404WS02004405        1.89      1.94      1.89      3.77         1.89
  WS02004405WS02004406        1.85      1.89      1.85      2.34         1.85
  WS02004406WS02004407        0.01      0.01      1.85      0.01         0.01
  WS02004407WS02004409        0.01      0.01      1.17      0.01         0.01
  WS02004409WS02004410        1.09      1.17      1.09      1.57         1.09
  WS02004410WS02004411        0.98      1.09      0.98      1.63         0.98
  WS02004411WS02004412        0.89      0.98      0.89      1.68         0.89
  WS02004412WS02004413        0.89      0.89      1.48      0.01         0.01
  WS02004413WS02003067        0.01      0.01      1.48      0.01         0.01
  WS02006109WS02006110        2.26      2.27      2.50      2.28         0.01
  WS02006110WS02006113        1.45      1.45      2.50      0.34         0.01
  WS02006111WS02006112        1.43      1.43      2.62      0.01         0.01
  WS02006112WS02006115        1.58      1.58      2.35      0.01         0.01
  WS02006113WS02006111        1.44      1.45      1.44      1.53         1.44
  WS02006115WS02006116        1.60      1.60      1.60      1.57         1.55
  WS02006116WS02004401        1.68      1.68      1.69      1.65         1.64
  WS02006228WS02006109        2.47      2.50      2.47      2.84         2.47
  WS02006229WS02006228        2.47      2.48      2.47      2.60         2.47
  WS02006230WS02006229        2.53      2.54      2.53      3.73         1.37
  WS02006231WS02006230        2.00      2.00      2.29      3.50         1.13
  WS02006232WS02006231        2.26      2.26      2.37      0.01         0.18
  WS02006234WS02006232        2.31      2.31      2.37      0.01         0.01
  WS02006235WS02006234        2.29      2.29      2.31      3.38         1.10
  WS02006238WS02006235        2.32      2.32      2.33      0.01         0.39
  WS02006239WS02006238        2.31      2.31      2.32      1.60         0.70
  WS02006240WS02006239        2.29      2.29      2.30      1.59         0.69
  WS02006242WS02006240        2.29      2.29      2.31      1.69         0.96
  WS02006243WS02006242        2.26      2.26      2.30      0.01         0.01
  WS02006245WS02006243        2.25      2.25      2.25      0.64         0.65
  WS02006247WS02006245        2.25      2.25      2.25      2.82         0.86
  WS02006248WS02006247        2.23      2.23      2.25      0.01         0.01
  WS02006249WS02006248        2.22      2.22      2.23      1.65         0.01
  WS02006251WS02006249        2.23      2.23      2.23      2.16         2.17
  WS02006252WS02006251        2.19      2.19      2.20      1.40         0.01
  WS02006253WS02006251        2.22      2.23      2.23      0.90         0.01
  WS02006256WS02006235        3.56      3.57      4.65      0.58         0.01
  WS02006280WS02006229        0.90      0.90      1.01      0.01         0.01
  WS02006284WS02006280        0.79      0.79      0.88      0.01         0.01
  WS02006287WS02006284        0.68      0.68      0.80      0.37         0.37
  YS02001580YS02001583        0.71      0.71      0.77      0.01         0.01
  YS02001583YS02001586        0.71      0.71      0.86      0.01         0.01
  YS02001586YS02001590        0.87      0.87      0.95      0.01         0.01
  YS02001590YS02001593        0.95      0.95      0.97      0.98         0.01
  YS02001593YS02001596        0.97      0.97      1.08      0.01         0.01
  YS02001596YS02001600        1.14      1.14      1.24      0.01         0.01
  YS02001600YS02001601        1.29      1.29      1.55      0.01         0.01
  YS02001601YS02001602        1.45      1.45      1.58      1.23         0.01
  YS02001602YS02001605        1.40      1.40      1.45      2.38         0.01
  YS02001605YS02001607        1.36      1.40      1.37      1.48         1.35
  YS02001607YS02001610        0.96      0.96      0.99      0.01         0.01
  YS02001610YS02001613        0.96      0.96      0.99      0.01         0.01
  YS02001613YS02001616        0.91      0.91      0.96      0.01         0.01
  YS02001616YS02001619        0.90      0.90      0.91      0.01         0.03
  YS02001619YS02001622        0.90      0.90      0.90      0.91         0.78
  YS02001622YS02001625        0.90      0.90      1.09      0.01         0.01
  YS02001625YS02001629        0.84      0.84      1.09      0.01         0.01
  YS02001629YS02163301        1.09      1.09      1.10      0.08         0.11
  YS02001633YS02163601        1.13      1.13      1.16      0.21         0.21
  YS02001641YS02001644        1.05      1.08      1.05      1.63         1.02
  YS02001644YS02001647        0.84      0.84      1.05      0.01         0.01
  YS02001647YS02001649        0.84      0.84      0.98      0.01         0.01
  YS02001649YS02001757        0.98      0.98      1.04      0.07         0.04
  YS02001652YS02001649        0.80      0.80      0.98      0.01         0.01
  YS02001655YS02001652        0.61      0.61      0.78      0.01         0.01
  YS02001658YS02001655        0.34      0.34      0.61      0.01         0.01
  YS02001661YS02001658        0.02      0.02      0.34      0.01         0.01
  YS02001664YS02001661        0.01      0.01      0.15      0.01         0.01
  YS02001745YS02001748        0.01      0.01      0.26      0.01         0.01
  YS02001748YS02001751        0.31      0.31      0.49      0.01         0.01
  YS02001751YS02001754        0.49      0.49      0.71      0.01         0.01
  YS02001754YS02001757        0.75      0.75      1.04      0.01         0.01
  YS02001757CaochengTiaoxuchi        1.04      1.04      1.57      0.36         0.36
  YS02001759YS02001757        0.96      0.96      1.04      0.01         0.01
  YS02001762YS02001759        0.93      0.93      0.96      0.01         0.01
  YS02001765YS02001762        0.89      0.89      0.93      0.01         0.01
  YS02001767YS02001765        0.86      0.86      0.89      0.01         0.01
  YS02001770YS02001767        0.85      0.85      0.86      0.60         0.50
  YS02001774YS02001770        0.82      0.82      0.92      0.01         0.01
  YS02001779YS02001774        0.70      0.70      0.92      0.01         0.01
  YS02001783YS02001784        0.64      0.66      0.64      0.82         0.63
  YS02001784YS02001785        0.56      0.64      0.56      1.07         0.56
  YS02001786YS02001788        0.17      0.56      0.17      0.94         0.16
  YS02001788YS02001790        0.17      0.17      0.19      0.01         0.01
  YS02001790YS02001791        0.18      0.19      0.18      0.54         0.10
  YS02001791YS02001793        0.18      0.18      0.25      0.01         0.01
  YS02001793JiankangQianchi        0.22      0.22      3.55      0.01         0.01
  YS02001882YS02001884        0.59      0.59      0.61      0.01         0.01
  YS02001884YS02001887        0.64      0.64      0.65      0.01         0.01
  YS02001887YS02001890        0.66      0.66      0.67      0.15         0.01
  YS02001890YS02001895        0.57      0.57      0.69      0.01         0.01
  YS02001895YS02001898        0.56      0.56      0.57      0.01         0.01
  YS02001898YS02001901        0.58      0.58      0.63      0.01         0.01
  YS02001901YS02001904        0.62      0.62      0.63      0.01         0.01
  YS02001904YS02001907        0.62      0.62      0.92      0.01         0.01
  YS02001907YS02006553        1.07      1.07      1.15      0.01         0.01
  YS02001910YS02001907        0.68      0.68      0.89      0.01         0.01
  YS02001915YS02001910        0.59      0.59      0.68      0.01         0.01
  YS02001918YS02001915        0.46      0.46      0.59      0.01         0.01
  YS02001920YS02001918        0.46      0.46      0.47      0.01         0.01
  YS02001923YS02001920        0.41      0.41      0.47      0.01         0.01
  YS02001926YS02001923        0.13      0.13      0.16      0.01         0.01
  YS02001929YS02001926        0.01      0.01      0.16      0.01         0.01
  YS02006553YS02006556        0.78      0.78      0.92      0.01         0.01
  YS02006556YS02006558        0.85      0.85      0.94      0.01         0.01
  YS02006558YS02006561        0.58      0.77      0.58      1.02         0.58
  YS02006561YS02001783        0.43      0.43      0.66      0.01         0.01
  YS02163301YS02001633        1.10      1.10      1.14      0.01         0.01
  YS02163601YS02164001        1.08      1.08      1.16      0.09         0.01
  YS02164001YS02001641        1.07      1.08      1.08      0.66         0.60
  YSB1154YSB6556              0.83      0.83      0.99      0.01         0.01
  YSB1171HS02004479           0.71      0.71      1.00      0.01         0.01
  YSB1174YSB1171              0.90      0.90      1.28      0.01         0.01
  YSB6556YSB1171              0.83      0.83      1.42      0.01         0.01
  
  
  ***************
  Pumping Summary
  ***************
  
  ---------------------------------------------------------------------------------------------------------
                                                  Min       Avg       Max     Total     Power    % Time Off
                        Percent   Number of      Flow      Flow      Flow    Volume     Usage    Pump Curve
  Pump                 Utilized   Start-Ups       LPS       LPS       LPS  10^6 ltr     Kw-hr    Low   High
  ---------------------------------------------------------------------------------------------------------
  CC-R1                   27.83           1      0.00    683.00    683.00     4.106     78.00    0.0   17.8
  CC-R2                   27.83           1      0.00    683.00    683.00     4.106     78.00    0.0   17.8
  CC-S1                   52.86           1      0.00    200.00    200.00     2.284     14.72    0.0    0.0
  CC-S2                   30.61           1      0.00    200.00    200.00     1.322      8.34    0.0    0.0
  JK-R1                   13.91           5      0.00    762.63   1000.00     2.236     12.84    0.0    0.0
  JK-R2                   13.91           5      0.00    762.63   1000.00     2.236     12.84    0.0    0.0
  JK-S                    19.48           6      0.00    281.33    300.00     1.142     22.57    0.0    0.0
  XR-1                    97.21           1      0.00     95.00     95.00     1.995      8.80    0.0    0.0
  XR-2                    91.94           1      0.00     95.00     95.00     1.887      7.97    0.0    0.0
  XR-3                     0.00           0      0.00      0.00      0.00     0.000      0.00    0.0    0.0
  XR-4                     0.00           0      0.00      0.00      0.00     0.000      0.00    0.0    0.0
  

  Analysis begun on:  Wed Aug 24 17:02:54 2022
  Analysis ended on:  Wed Aug 24 17:03:00 2022
  Total elapsed time: 00:00:06