
  OWA STORM WATER MANAGEMENT MODEL - VERSION v5.1.14 (OWA 2022-07-31)
  --------------------------------------------------------------

  WARNING 04: minimum elevation drop used for Conduit WS02004404WS02004405
  WARNING 03: negative offset ignored for Link YS02001904YS02001907
  
  *********************************************************
  NOTE: The summary statistics displayed in this report are
  based on results found at every computational time step,  
  not just on results from each reporting time step.
  *********************************************************
  
  ****************
  Analysis Options
  ****************
  Flow Units ............... LPS
  Process Models:
    Rainfall/Runoff ........ YES
    RDII ................... NO
    Snowmelt ............... NO
    Groundwater ............ NO
    Flow Routing ........... YES
    Ponding Allowed ........ NO
    Water Quality .......... NO
  Infiltration Method ...... HORTON
  Flow Routing Method ...... DYNWAVE
  Surcharge Method ......... EXTRAN
  Starting Date ............ 01/01/2000 00:00:00
  Ending Date .............. 01/01/2000 06:00:00
  Antecedent Dry Days ...... 8.0
  Report Time Step ......... 00:01:00
  Wet Time Step ............ 00:01:00
  Dry Time Step ............ 00:01:00
  Routing Time Step ........ 30.00 sec
  Variable Time Step ....... YES
  Maximum Trials ........... 8
  Number of Threads ........ 4
  Head Tolerance ........... 0.001500 m
  
  
  **************************        Volume         Depth
  Runoff Quantity Continuity     hectare-m            mm
  **************************     ---------       -------
  Total Precipitation ......         2.325        38.386
  Evaporation Loss .........         0.000         0.000
  Infiltration Loss ........         0.222         3.665
  Surface Runoff ...........         2.039        33.659
  Final Storage ............         0.065         1.070
  Continuity Error (%) .....        -0.021
  
  
  **************************        Volume        Volume
  Flow Routing Continuity        hectare-m      10^6 ltr
  **************************     ---------     ---------
  Dry Weather Inflow .......         0.472         4.722
  Wet Weather Inflow .......         2.039        20.386
  Groundwater Inflow .......         0.000         0.000
  RDII Inflow ..............         0.000         0.000
  External Inflow ..........         0.078         0.784
  External Outflow .........         1.658        16.576
  Flooding Loss ............         0.754         7.542
  Evaporation Loss .........         0.000         0.000
  Exfiltration Loss ........         0.000         0.000
  Initial Stored Volume ....         0.303         3.031
  Final Stored Volume ......         0.553         5.532
  Continuity Error (%) .....        -2.515
  
  
  *************************
  Highest Continuity Errors
  *************************
  Node JK-storage (-22.91%)
  Node YS02001884 (5.50%)
  Node YS02001583 (-5.31%)
  Node YS02001774 (3.08%)
  Node HS02004842 (2.15%)
  
  
  ***************************
  Time-Step Critical Elements
  ***************************
  Link WS02006235WS02006234 (21.85%)
  Link WS02006280WS02006229 (20.17%)
  Link YS02001793JiankangQianchi (11.64%)
  Link WS02003066WSF200 (10.95%)
  Link WS02004404WS02004405 (10.77%)
  
  
  ********************************
  Highest Flow Instability Indexes
  ********************************
  Link WS02006113WS02006111 (46)
  Link WS02006111WS02006112 (46)
  Link WS02006110WS02006113 (34)
  Link WS02004404WS02004405 (22)
  Link WS02006252WS02006251 (22)
  
  
  *************************
  Routing Time Step Summary
  *************************
  Minimum Time Step           :     0.03 sec
  Average Time Step           :     2.14 sec
  Maximum Time Step           :     8.46 sec
  Percent in Steady State     :     0.00
  Average Iterations per Step :     3.47
  Percent Not Converging      :    15.02
  
  
  ***************************
  Subcatchment Runoff Summary
  ***************************
  
  ------------------------------------------------------------------------------------------------------------------------------
                            Total      Total      Total      Total     Imperv       Perv      Total       Total     Peak  Runoff
                           Precip      Runon       Evap      Infil     Runoff     Runoff     Runoff      Runoff   Runoff   Coeff
  Subcatchment                 mm         mm         mm         mm         mm         mm         mm    10^6 ltr      LPS
  ------------------------------------------------------------------------------------------------------------------------------
  sub0                      38.39       0.00       0.00       0.90      34.43       1.79      36.23        0.03    21.41   0.944
  sub1                      38.39       0.00       0.00       1.56      32.86       2.67      35.52        0.24   153.84   0.925
  sub10                     38.39       0.00       0.00       1.09      33.98       1.98      35.96        0.40   261.48   0.937
  sub11                     38.39       0.00       0.00       1.07      34.01       2.01      36.02        0.42   286.68   0.938
  sub12                     38.39       0.00       0.00       1.74      32.20       3.26      35.46        0.31   224.75   0.924
  sub14                     38.39       0.00       0.00       1.22      33.63       2.23      35.86        0.34   230.15   0.934
  sub15                     38.39       0.00       0.00       4.92      25.86       6.60      32.46        0.56   356.09   0.846
  sub16                     38.39       0.00       0.00       5.06      24.79       7.61      32.40        0.34   236.02   0.844
  sub17                     38.39       0.00       0.00       4.93      25.16       7.35      32.51        0.28   192.15   0.847
  sub2                      38.39       0.00       0.00       6.99      23.22       7.21      30.43        0.28   156.85   0.793
  sub22                     38.39       0.00       0.00       7.46      21.08       9.05      30.13        1.90  1179.12   0.785
  sub23                     38.39       0.00       0.00       6.08      23.30       8.13      31.43        1.50   976.74   0.819
  sub3                      38.39       0.00       0.00       7.52      23.14       6.68      29.82        0.67   337.58   0.777
  sub4                      38.39       0.00       0.00       1.77      32.54       2.46      35.00        0.73   377.02   0.912
  sub5                      38.39       0.00       0.00       0.95      34.33       1.74      36.07        0.41   265.24   0.940
  sub60                     38.39       0.00       0.00       1.64      32.54       2.96      35.51        0.47   324.24   0.925
  sub61                     38.39       0.00       0.00       2.40      30.70       4.13      34.83        0.64   449.07   0.907
  sub62                     38.39       0.00       0.00       1.09      33.97       1.98      35.95        0.98   642.45   0.936
  sub63                     38.39       0.00       0.00       4.49      26.26       6.64      32.90        0.75   506.25   0.857
  sub64                     38.39       0.00       0.00       2.26      31.35       3.50      34.85        0.84   525.23   0.908
  sub65                     38.39       0.00       0.00       1.96      32.05       3.03      35.09        0.97   588.55   0.914
  sub66                     38.39       0.00       0.00       5.55      26.06       5.58      31.64        1.48   760.73   0.824
  sub67                     38.39       0.00       0.00       1.04      34.05       2.03      36.08        0.67   478.86   0.940
  sub68                     38.39       0.00       0.00       1.99      31.78       3.39      35.17        0.97   654.34   0.916
  sub69                     38.39       0.00       0.00       1.76      32.43       4.00      36.43        1.35   785.27   0.949
  sub7                      38.39       0.00       0.00       1.20      33.66       2.26      35.91        0.12    84.33   0.936
  sub70                     38.39       0.00       0.00       5.88      25.03       7.18      32.21        0.93   428.65   0.839
  sub71                     38.39       0.00       0.00       1.13      33.89       1.94      35.83        0.94   571.31   0.933
  sub72                     38.39       0.00       0.00       1.01      34.14       1.68      35.82        0.49   277.08   0.933
  sub8                      38.39       0.00       0.00       1.22      33.64       2.24      35.88        0.23   156.07   0.935
  sub9                      38.39       0.00       0.00       1.22      33.63       2.24      35.87        0.17   116.83   0.934
  
  
  ******************
  Node Depth Summary
  ******************
  
  ---------------------------------------------------------------------------------
                                 Average  Maximum  Maximum  Time of Max    Reported
                                   Depth    Depth      HGL   Occurrence   Max Depth
  Node                 Type       Meters   Meters   Meters  days hr:min      Meters
  ---------------------------------------------------------------------------------
  HS02004478           JUNCTION     0.21     1.56    10.79     0  02:26        1.50
  HS02004479           JUNCTION     0.29     1.70    10.90     0  02:26        1.65
  HS02004480           JUNCTION     0.25     1.68    10.92     0  02:26        1.61
  HS02004770           JUNCTION     0.26     1.42    11.25     0  02:23        1.42
  HS02004777           JUNCTION     0.28     1.48    11.28     0  02:23        1.44
  HS02004785           JUNCTION     0.17     1.49    11.39     0  02:23        1.32
  HS02004788           JUNCTION     0.14     1.42    11.32     0  02:23        1.31
  HS02004792           JUNCTION     0.19     1.60    11.12     0  02:24        1.60
  HS02004799           JUNCTION     0.31     1.76    10.97     0  02:26        1.76
  HS02004802           JUNCTION     0.31     1.79    10.92     0  02:26        1.63
  HS02004807           JUNCTION     0.28     1.92    11.09     0  02:26        1.65
  HS02004817           JUNCTION     0.59     2.44    11.29     0  02:26        1.99
  HS02004824           JUNCTION     0.14     2.01    11.41     0  02:26        1.45
  HS02004830           JUNCTION     0.14     2.03    11.50     0  02:26        1.40
  HS02004837           JUNCTION     0.11     1.99    11.57     0  02:26        1.28
  HS02004842           JUNCTION     0.42     2.22    11.49     0  02:26        1.59
  HS02004848           JUNCTION     0.09     2.07    11.67     0  02:26        1.25
  HS02004852           JUNCTION     0.10     2.12    11.63     0  02:26        1.30
  HS02004856           JUNCTION     0.16     2.07    11.50     0  02:26        1.35
  HS02004862           JUNCTION     0.12     2.00    11.38     0  02:26        1.33
  HS02004870           JUNCTION     0.11     1.84    11.13     0  02:26        1.34
  HS02004876           JUNCTION     0.16     1.91    10.94     0  02:26        1.48
  HS02004881           JUNCTION     0.10     1.66    10.69     0  02:26        1.32
  HS02004901           JUNCTION     0.27     1.42    11.24     0  02:23        1.42
  WS02001211           JUNCTION     0.65     0.80     5.64     0  02:32        0.80
  WS02001212           JUNCTION     0.39     0.56     5.63     0  02:32        0.56
  WS02001213           JUNCTION     0.64     0.86     5.62     0  02:32        0.86
  WS02003059           JUNCTION     0.71     0.93     5.61     0  02:31        0.93
  WS02003060           JUNCTION     0.44     0.67     5.61     0  02:31        0.67
  WS02003066           JUNCTION     0.27     0.45     6.00     0  02:30        0.45
  WS02003067           JUNCTION     0.62     0.88     6.20     0  02:30        0.88
  WS02003069           JUNCTION     0.50     0.76     5.35     0  02:31        0.76
  WS02003072           JUNCTION     0.56     0.80     5.17     0  02:32        0.80
  WS02003073           JUNCTION     0.34     0.51     4.57     0  02:33        0.51
  WS02004138           JUNCTION     0.13     0.14     7.39     0  00:29        0.14
  WS02004139           JUNCTION     0.59     0.73     5.64     0  02:33        0.73
  WS02004401           JUNCTION     0.88     1.77     7.77     0  02:29        1.76
  WS02004402           JUNCTION     0.89     1.71     7.67     0  02:29        1.70
  WS02004403           JUNCTION     0.89     1.65     7.58     0  02:29        1.63
  WS02004404           JUNCTION     0.96     1.66     7.51     0  02:29        1.66
  WS02004405           JUNCTION     0.94     1.61     7.46     0  02:30        1.60
  WS02004406           JUNCTION     0.93     1.51     7.34     0  02:30        1.50
  WS02004407           JUNCTION     0.32     0.86     7.17     0  02:30        0.86
  WS02004409           JUNCTION     0.66     1.34     7.11     0  02:29        1.33
  WS02004410           JUNCTION     0.66     1.26     6.98     0  02:29        1.25
  WS02004411           JUNCTION     0.65     1.18     6.86     0  02:29        1.17
  WS02004412           JUNCTION     0.64     1.08     6.72     0  02:30        1.08
  WS02004413           JUNCTION     0.77     1.13     6.60     0  02:30        1.13
  WS02006109           JUNCTION     1.13     2.64     9.26     0  02:23        2.64
  WS02006110           JUNCTION     1.05     2.36     8.94     0  02:29        2.35
  WS02006111           JUNCTION     0.47     1.64     8.35     0  02:29        1.63
  WS02006112           JUNCTION     1.11     2.25     8.13     0  02:29        2.24
  WS02006113           JUNCTION     0.59     1.75     8.65     0  02:29        1.75
  WS02006115           JUNCTION     0.81     1.84     7.98     0  02:29        1.84
  WS02006116           JUNCTION     0.87     1.84     7.88     0  02:28        1.84
  WS02006228           JUNCTION     1.20     3.02     9.68     0  02:26        2.99
  WS02006229           JUNCTION     1.21     3.22     9.91     0  02:26        3.18
  WS02006230           JUNCTION     1.18     2.65     9.39     0  02:04        2.65
  WS02006231           JUNCTION     0.87     2.19     9.31     0  02:29        2.18
  WS02006232           JUNCTION     0.99     2.18     9.22     0  02:18        2.18
  WS02006234           JUNCTION     0.91     1.96     9.12     0  02:18        1.96
  WS02006235           JUNCTION     0.94     1.98     9.15     0  02:40        1.93
  WS02006238           JUNCTION     0.96     2.00     9.14     0  02:40        1.93
  WS02006239           JUNCTION     0.93     1.85     9.06     0  02:40        1.78
  WS02006240           JUNCTION     0.89     1.69     8.98     0  02:04        1.62
  WS02006242           JUNCTION     0.96     1.55     8.82     0  02:04        1.55
  WS02006243           JUNCTION     0.87     1.48     8.90     0  02:04        1.36
  WS02006245           JUNCTION     0.85     1.56     9.04     0  02:04        1.26
  WS02006247           JUNCTION     0.87     1.30     8.80     0  02:04        1.22
  WS02006248           JUNCTION     0.83     1.10     8.69     0  02:04        1.10
  WS02006249           JUNCTION     0.85     1.09     8.69     0  02:04        1.09
  WS02006251           JUNCTION     0.97     2.14     9.81     0  02:26        2.07
  WS02006252           JUNCTION     0.63     1.50     9.74     0  02:00        1.50
  WS02006253           JUNCTION     1.03     2.90    10.54     0  02:26        2.64
  WS02006256           JUNCTION     1.23     2.35     9.28     0  00:00        2.35
  WS02006280           JUNCTION     0.28     1.74    10.01     0  02:26        1.70
  WS02006284           JUNCTION     0.55     1.94    10.34     0  02:26        1.88
  WS02006287           JUNCTION     0.28     1.72    10.68     0  02:26        1.65
  WSF200               JUNCTION     0.28     0.51     5.74     0  02:31        0.51
  YS02001580           JUNCTION     0.08     1.05     9.59     0  02:22        1.05
  YS02001583           JUNCTION     0.11     1.00     9.49     0  02:22        0.96
  YS02001586           JUNCTION     0.18     1.13     9.30     0  02:22        1.13
  YS02001590           JUNCTION     0.29     1.40     9.26     0  02:22        1.37
  YS02001593           JUNCTION     0.22     1.32     9.19     0  02:22        1.28
  YS02001596           JUNCTION     0.32     1.68     9.09     0  02:22        1.65
  YS02001600           JUNCTION     0.44     1.87     9.00     0  02:22        1.86
  YS02001601           JUNCTION     0.66     2.06     8.90     0  02:22        2.06
  YS02001602           JUNCTION     0.58     1.87     8.77     0  02:22        1.87
  YS02001605           JUNCTION     0.55     1.77     8.68     0  02:32        1.77
  YS02001607           JUNCTION     0.54     1.65     8.49     0  02:27        1.64
  YS02001610           JUNCTION     0.59     1.68     8.48     0  02:25        1.68
  YS02001613           JUNCTION     0.55     1.65     8.49     0  02:28        1.64
  YS02001616           JUNCTION     0.48     1.58     8.49     0  02:29        1.57
  YS02001619           JUNCTION     0.46     1.57     8.50     0  02:25        1.56
  YS02001622           JUNCTION     0.46     1.55     8.46     0  02:28        1.55
  YS02001625           JUNCTION     0.73     1.78     8.38     0  02:25        1.78
  YS02001629           JUNCTION     0.69     1.85     8.40     0  02:26        1.85
  YS02001633           JUNCTION     0.78     2.00     8.46     0  02:27        1.97
  YS02001641           JUNCTION     0.76     1.95     8.39     0  02:27        1.93
  YS02001644           JUNCTION     0.76     1.92     8.35     0  02:27        1.92
  YS02001647           JUNCTION     0.57     1.70     8.31     0  02:28        1.68
  YS02001649           JUNCTION     0.73     1.88     8.27     0  02:28        1.85
  YS02001652           JUNCTION     0.55     1.70     8.29     0  02:27        1.66
  YS02001655           JUNCTION     0.37     1.60     8.45     0  02:27        1.41
  YS02001658           JUNCTION     0.23     1.49     8.63     0  02:27        1.14
  YS02001661           JUNCTION     0.17     0.93     8.33     0  02:28        0.91
  YS02001664           JUNCTION     0.05     0.38     8.30     0  02:28        0.32
  YS02001745           JUNCTION     0.07     0.68     8.19     0  02:27        0.66
  YS02001748           JUNCTION     0.25     1.41     8.49     0  02:28        1.06
  YS02001751           JUNCTION     0.34     1.46     8.34     0  02:28        1.26
  YS02001754           JUNCTION     0.52     1.61     8.22     0  02:28        1.54
  YS02001757           JUNCTION     0.82     1.90     8.16     0  02:28        1.87
  YS02001759           JUNCTION     0.73     1.85     8.21     0  02:30        1.84
  YS02001762           JUNCTION     0.70     1.84     8.24     0  02:28        1.83
  YS02001765           JUNCTION     0.66     1.82     8.27     0  02:28        1.81
  YS02001767           JUNCTION     0.63     1.82     8.31     0  02:28        1.80
  YS02001770           JUNCTION     0.64     1.87     8.37     0  02:26        1.84
  YS02001774           JUNCTION     0.70     1.96     8.38     0  02:26        1.91
  YS02001779           JUNCTION     0.46     1.68     8.37     0  02:25        1.65
  YS02001783           JUNCTION     0.24     1.70     7.84     0  02:29        1.42
  YS02001784           JUNCTION     0.25     1.68     7.74     0  02:29        1.36
  YS02001786           JUNCTION     0.22     1.51     7.54     0  02:29        1.21
  YS02001788           JUNCTION     0.16     1.42     7.39     0  02:29        1.09
  YS02001790           JUNCTION     0.19     1.50     7.14     0  02:29        1.26
  YS02001791           JUNCTION     0.12     1.54     7.01     0  02:29        1.25
  YS02001793           JUNCTION     0.08     1.80     6.63     0  02:30        1.78
  YS02001882           JUNCTION     0.29     1.65     8.36     0  02:26        1.62
  YS02001884           JUNCTION     0.39     1.74     8.35     0  02:26        1.72
  YS02001887           JUNCTION     0.46     1.81     8.34     0  02:26        1.79
  YS02001890           JUNCTION     0.49     1.81     8.32     0  02:26        1.81
  YS02001895           JUNCTION     0.26     1.57     8.31     0  02:26        1.56
  YS02001898           JUNCTION     0.27     1.57     8.30     0  02:26        1.55
  YS02001901           JUNCTION     0.39     1.68     8.29     0  02:26        1.67
  YS02001904           JUNCTION     0.37     1.64     8.27     0  02:26        1.63
  YS02001907           JUNCTION     0.69     1.96     8.25     0  02:26        1.96
  YS02001910           JUNCTION     0.48     1.98     8.49     0  02:27        1.81
  YS02001915           JUNCTION     0.29     1.93     8.65     0  02:27        1.66
  YS02001918           JUNCTION     0.15     1.81     8.88     0  02:27        1.34
  YS02001920           JUNCTION     0.23     2.08     9.09     0  02:27        1.42
  YS02001923           JUNCTION     0.11     2.01     9.27     0  02:27        1.18
  YS02001926           JUNCTION     0.15     1.90     9.35     0  02:27        1.00
  YS02001929           JUNCTION     0.08     1.78     9.47     0  02:27        0.71
  YS02006553           JUNCTION     0.69     2.03     8.31     0  02:29        1.96
  YS02006556           JUNCTION     0.66     2.08     8.40     0  02:29        1.92
  YS02006558           JUNCTION     0.71     2.16     8.42     0  02:29        1.96
  YS02006561           JUNCTION     0.14     1.28     7.94     0  02:29        1.03
  YS02163301           JUNCTION     0.72     1.91     8.43     0  02:27        1.89
  YS02163601           JUNCTION     0.82     2.03     8.43     0  02:27        1.99
  YS02164001           JUNCTION     0.75     1.95     8.41     0  02:27        1.92
  YSB1154              JUNCTION     0.43     1.86    10.92     0  02:26        1.84
  YSB1171              JUNCTION     0.58     1.95    10.85     0  02:26        1.95
  YSB1174              JUNCTION     0.38     1.78    10.89     0  02:26        1.77
  YSB6556              JUNCTION     0.32     1.72    10.89     0  02:26        1.71
  CC-1                 OUTFALL      0.00     0.00     0.00     0  00:00        0.00
  CC-2                 OUTFALL      0.00     0.00     0.00     0  00:00        0.00
  JK-1                 OUTFALL      0.00     0.00     0.00     0  00:00        0.00
  JK-2                 OUTFALL      0.00     0.00     0.00     0  00:00        0.00
  WSC                  OUTFALL      0.34     0.51     1.18     0  02:33        0.51
  CC-storage           STORAGE      1.47     2.13     7.63     0  03:08        2.13
  JK-storage           STORAGE      0.22     5.80     6.60     0  02:29        5.80
  XR-storage           STORAGE      7.91     8.66     6.66     0  06:00        8.66
  
  
  *******************
  Node Inflow Summary
  *******************
  
  -------------------------------------------------------------------------------------------------
                                  Maximum  Maximum                  Lateral       Total        Flow
                                  Lateral    Total  Time of Max      Inflow      Inflow     Balance
                                   Inflow   Inflow   Occurrence      Volume      Volume       Error
  Node                 Type           LPS      LPS  days hr:min    10^6 ltr    10^6 ltr     Percent
  -------------------------------------------------------------------------------------------------
  HS02004478           JUNCTION      0.00  2238.52     0  02:30           0        5.97      -0.007
  HS02004479           JUNCTION      0.00   403.51     0  02:26           0       0.672       0.121
  HS02004480           JUNCTION      0.00  2073.87     0  02:25           0        4.66       0.069
  HS02004770           JUNCTION    976.74   976.74     0  02:30         1.5        1.69       0.185
  HS02004777           JUNCTION      0.03   744.94     0  02:23    0.000648        1.41       0.376
  HS02004785           JUNCTION      0.15   767.18     0  02:23     0.00324        1.41       0.037
  HS02004788           JUNCTION    357.76   820.03     0  02:24       0.594           2       0.000
  HS02004792           JUNCTION   1179.40  1887.65     0  02:30        1.91        3.91       0.017
  HS02004799           JUNCTION    230.15  1722.35     0  02:25       0.341           4       0.065
  HS02004802           JUNCTION      0.00   670.57     0  02:30           0        1.34       0.315
  HS02004807           JUNCTION    286.68   669.50     0  02:30       0.418        1.39       0.305
  HS02004817           JUNCTION      0.60   384.88     0  02:30       0.013        1.03       1.712
  HS02004824           JUNCTION    377.07   611.01     0  02:24       0.731        1.18       0.063
  HS02004830           JUNCTION      0.15   623.02     0  02:23     0.00324       0.612       0.161
  HS02004837           JUNCTION    267.83   801.35     0  02:24       0.534       0.871       0.117
  HS02004842           JUNCTION      0.00   785.82     0  02:26           0       0.601       2.200
  HS02004848           JUNCTION    337.58  1038.27     0  02:26       0.671        1.14      -0.048
  HS02004852           JUNCTION      0.00  1009.80     0  02:26           0        1.02      -0.033
  HS02004856           JUNCTION    116.83  1071.73     0  02:26       0.172        1.19       0.129
  HS02004862           JUNCTION    157.05  1145.94     0  02:26       0.288        1.48       0.036
  HS02004870           JUNCTION    156.07  1176.19     0  02:25       0.229        1.71       0.026
  HS02004876           JUNCTION    153.84  1248.77     0  02:26       0.236        1.95       0.064
  HS02004881           JUNCTION     84.33  1320.44     0  02:26       0.121        2.06       0.020
  HS02004901           JUNCTION    236.02   480.31     0  02:30       0.339       0.483       0.413
  WS02001211           JUNCTION      7.35   207.27     0  02:55       0.159        4.02       0.860
  WS02001212           JUNCTION      0.00   216.46     0  02:55           0        3.98       0.427
  WS02001213           JUNCTION      0.00   223.69     0  02:55           0        3.97       0.579
  WS02003059           JUNCTION      0.00   230.83     0  02:55           0        3.95       1.021
  WS02003060           JUNCTION     16.53  1466.95     0  02:31       0.357        13.3       0.226
  WS02003066           JUNCTION      0.00  1260.48     0  02:30           0        9.04       0.059
  WS02003067           JUNCTION      0.00  1260.60     0  02:30           0        9.05       0.117
  WS02003069           JUNCTION      0.32  1467.08     0  02:31     0.00691        13.3       0.240
  WS02003072           JUNCTION      0.00  1466.70     0  02:32           0        13.2       0.289
  WS02003073           JUNCTION      1.82  1468.56     0  02:32      0.0393        13.2       0.330
  WS02004138           JUNCTION      0.00   190.00     0  00:29           0        3.88       0.080
  WS02004139           JUNCTION      0.32   192.76     0  00:29     0.00693        3.89       0.715
  WS02004401           JUNCTION      0.00  1261.47     0  02:30           0        9.32       0.265
  WS02004402           JUNCTION      0.00  1262.25     0  02:30           0         9.3       0.246
  WS02004403           JUNCTION      0.00  1261.75     0  02:30           0        9.27       0.221
  WS02004404           JUNCTION      0.16  1263.04     0  02:29      0.0035        9.26       0.164
  WS02004405           JUNCTION      0.04  1262.82     0  02:30    0.000823        9.24       0.245
  WS02004406           JUNCTION      0.00  1262.38     0  02:30           0        9.22       0.394
  WS02004407           JUNCTION      0.00  1262.14     0  02:30           0        9.18       0.100
  WS02004409           JUNCTION      0.00  1260.32     0  02:30           0        9.17       0.227
  WS02004410           JUNCTION      0.00  1260.96     0  02:30           0        9.15       0.247
  WS02004411           JUNCTION      0.00  1260.32     0  02:30           0        9.13       0.249
  WS02004412           JUNCTION      0.00  1260.36     0  02:30           0        9.11       0.262
  WS02004413           JUNCTION      0.00  1260.61     0  02:30           0        9.08       0.383
  WS02006109           JUNCTION      1.23  1256.39     0  02:30      0.0266        9.27       0.247
  WS02006110           JUNCTION      0.00  1121.97     0  02:37           0        9.16       0.245
  WS02006111           JUNCTION      0.00  1121.95     0  02:37           0        9.12       0.047
  WS02006112           JUNCTION    192.15  1261.45     0  02:29       0.279         9.4       0.322
  WS02006113           JUNCTION      0.00  1122.09     0  02:37           0        9.14       0.147
  WS02006115           JUNCTION      0.00  1261.36     0  02:29           0        9.37       0.268
  WS02006116           JUNCTION      0.00  1261.88     0  02:30           0        9.34       0.238
  WS02006228           JUNCTION      0.00  1257.49     0  02:30           0        9.26       0.188
  WS02006229           JUNCTION      0.00  2240.69     0  02:30           0        10.7       0.140
  WS02006230           JUNCTION     10.28   993.03     0  02:30       0.222        6.17       0.271
  WS02006231           JUNCTION      0.00   505.31     0  03:20           0        5.46       0.213
  WS02006232           JUNCTION      0.00   503.28     0  03:20           0        5.47       0.335
  WS02006234           JUNCTION      0.00   498.31     0  03:20           0        5.48       0.200
  WS02006235           JUNCTION      0.00   492.30     0  03:21           0        5.43       0.209
  WS02006238           JUNCTION      0.00   418.60     0  03:39           0        5.23       0.170
  WS02006239           JUNCTION      0.00   418.55     0  03:39           0        5.24       0.250
  WS02006240           JUNCTION      0.00   418.47     0  03:39           0        5.25       0.322
  WS02006242           JUNCTION      0.00   427.06     0  02:04           0        5.26       0.356
  WS02006243           JUNCTION      0.00   455.61     0  02:03           0        5.03       0.263
  WS02006245           JUNCTION      0.00   483.22     0  02:03           0        5.05       0.287
  WS02006247           JUNCTION      0.00   483.42     0  02:03           0        5.06       0.176
  WS02006248           JUNCTION      0.00   505.32     0  02:02           0        5.23       0.174
  WS02006249           JUNCTION      0.00  1336.14     0  02:26           0        7.63       0.210
  WS02006251           JUNCTION      0.08  1341.56     0  02:26     0.00166        7.65       0.228
  WS02006252           JUNCTION      0.00   409.71     0  02:26           0        5.75       0.008
  WS02006253           JUNCTION     21.41  1340.60     0  02:26      0.0293         2.1       0.611
  WS02006256           JUNCTION      0.00   300.00     0  00:00           0       0.657      -0.250
  WS02006280           JUNCTION      0.00  2239.70     0  02:30           0        5.95       0.004
  WS02006284           JUNCTION      0.10  2238.21     0  02:30     0.00207        5.95       0.019
  WS02006287           JUNCTION      0.00  2238.79     0  02:30           0        5.95       0.016
  WSF200               JUNCTION      0.00  1260.52     0  02:30           0        9.03       0.062
  YS02001580           JUNCTION      0.00   128.66     0  02:22           0     0.00424       0.537
  YS02001583           JUNCTION      0.00   157.69     0  02:22           0      0.0152      -5.038
  YS02001586           JUNCTION    428.65   428.65     0  02:30        0.93       0.942       0.148
  YS02001590           JUNCTION      0.00   317.88     0  02:30           0       0.887       0.034
  YS02001593           JUNCTION      0.00   318.06     0  02:30           0       0.887       0.044
  YS02001596           JUNCTION      0.00   317.90     0  02:31           0       0.886       0.004
  YS02001600           JUNCTION      0.00   318.12     0  02:30           0       0.886      -0.020
  YS02001601           JUNCTION    785.27  1102.75     0  02:30        1.35        2.23       0.067
  YS02001602           JUNCTION      0.00   514.52     0  02:22           0        1.67       0.055
  YS02001605           JUNCTION      0.00   514.40     0  02:22           0        1.61       0.073
  YS02001607           JUNCTION      0.00   514.22     0  02:22           0         1.6       0.156
  YS02001610           JUNCTION      0.00   514.21     0  02:22           0         1.6       0.194
  YS02001613           JUNCTION      0.00   514.30     0  02:22           0        1.46       0.157
  YS02001616           JUNCTION      0.00   513.78     0  02:21           0        1.46       0.056
  YS02001619           JUNCTION    760.73   906.37     0  02:22        1.47        2.93       0.017
  YS02001622           JUNCTION      0.00   912.99     0  02:22           0        2.93       0.024
  YS02001625           JUNCTION      0.00   916.12     0  02:22           0        2.93       0.597
  YS02001629           JUNCTION      0.00   917.65     0  02:22           0        2.52      -0.107
  YS02001633           JUNCTION    588.75  1288.23     0  02:24        0.97        3.48       0.132
  YS02001641           JUNCTION      0.00  1288.08     0  02:24           0        3.47       0.100
  YS02001644           JUNCTION    525.27  1642.22     0  02:25       0.838         4.3       0.094
  YS02001647           JUNCTION      0.00  1641.33     0  02:25           0        4.28       0.001
  YS02001649           JUNCTION      0.00  1876.85     0  02:24           0        5.04       0.123
  YS02001652           JUNCTION      0.00   532.36     0  02:28           0       0.757      -0.162
  YS02001655           JUNCTION      0.15   531.49     0  02:28     0.00332       0.788      -0.169
  YS02001658           JUNCTION      0.00   552.60     0  02:27           0       0.802      -0.038
  YS02001661           JUNCTION      0.00   602.36     0  02:28           0       0.767       0.041
  YS02001664           JUNCTION    506.25   506.25     0  02:30       0.747       0.747      -0.026
  YS02001745           JUNCTION    324.25   324.25     0  02:30       0.467       0.474       0.315
  YS02001748           JUNCTION      0.04   552.62     0  02:27    0.000972       0.515      -0.572
  YS02001751           JUNCTION      0.01   342.03     0  02:28    0.000238       0.521       0.158
  YS02001754           JUNCTION      0.26   334.73     0  02:31     0.00562       0.503      -0.325
  YS02001757           JUNCTION      0.00  2926.02     0  02:28           0        7.16       0.437
  YS02001759           JUNCTION    449.11  1094.87     0  02:30        0.64        1.63       0.276
  YS02001762           JUNCTION      0.00   648.87     0  02:30           0        0.99       0.316
  YS02001765           JUNCTION      0.00   646.91     0  02:30           0       0.993       0.270
  YS02001767           JUNCTION      0.54   645.31     0  02:30      0.0116       0.996       0.274
  YS02001770           JUNCTION    642.60   642.60     0  02:30       0.988        1.05       0.129
  YS02001774           JUNCTION      0.00   320.61     0  02:25           0      0.0934       3.177
  YS02001779           JUNCTION      0.01   327.52     0  02:25    0.000108      0.0337      -2.536
  YS02001783           JUNCTION      0.00  1151.92     0  02:29           0         2.8       0.012
  YS02001784           JUNCTION      1.06  1153.56     0  02:29      0.0229        2.82       0.025
  YS02001786           JUNCTION      0.06  1153.96     0  02:29     0.00122        2.83       0.027
  YS02001788           JUNCTION      0.07  1155.74     0  02:29     0.00153        2.83       0.004
  YS02001790           JUNCTION      0.15  1200.32     0  02:31     0.00335        2.83       0.002
  YS02001791           JUNCTION      0.00  1353.87     0  02:31           0        2.83      -0.005
  YS02001793           JUNCTION      0.00  1413.48     0  02:31           0        2.83      -0.002
  YS02001882           JUNCTION      0.00    29.13     0  02:23           0      0.0125       5.956
  YS02001884           JUNCTION      0.00    66.97     0  02:23           0      0.0479       5.823
  YS02001887           JUNCTION    479.31   479.31     0  02:30       0.681       0.713       0.657
  YS02001890           JUNCTION      0.00   479.71     0  02:29           0       0.673       0.792
  YS02001895           JUNCTION      0.00   479.53     0  02:30           0       0.667       0.221
  YS02001898           JUNCTION      0.00   479.45     0  02:30           0       0.666       0.095
  YS02001901           JUNCTION      0.00   480.77     0  02:30           0       0.667       0.502
  YS02001904           JUNCTION      0.00   480.70     0  02:30           0       0.671       0.458
  YS02001907           JUNCTION      0.00  1414.09     0  02:28           0        2.15       0.866
  YS02001910           JUNCTION      0.00   964.58     0  02:28           0        1.49       0.496
  YS02001915           JUNCTION    571.33   963.98     0  02:28       0.937        1.52       0.118
  YS02001918           JUNCTION      0.00   448.04     0  02:28           0       0.609       0.033
  YS02001920           JUNCTION      2.87   447.63     0  02:28       0.062       0.595       0.178
  YS02001923           JUNCTION      0.04   414.68     0  02:27    0.000814       0.519      -0.076
  YS02001926           JUNCTION      0.05   428.49     0  02:26     0.00113       0.502       0.033
  YS02001929           JUNCTION    277.08   308.17     0  02:27       0.492       0.493      -0.195
  YS02006553           JUNCTION      0.00   791.98     0  02:38           0        1.86       0.651
  YS02006556           JUNCTION      0.00   791.76     0  02:37           0        1.87       0.457
  YS02006558           JUNCTION    655.22  1153.28     0  02:29       0.987        2.83       0.124
  YS02006561           JUNCTION      0.00  1151.75     0  02:29           0         2.8       0.005
  YS02163301           JUNCTION      0.00   909.42     0  02:24           0        2.52       0.093
  YS02163601           JUNCTION      0.11  1288.62     0  02:24     0.00238        3.47       0.167
  YS02164001           JUNCTION      0.00  1288.20     0  02:24           0        3.47       0.083
  YSB1154              JUNCTION    265.24   265.24     0  02:30       0.409        0.41       0.374
  YSB1171              JUNCTION      0.00   490.77     0  02:30           0       0.726       0.912
  YSB1174              JUNCTION    224.75   224.75     0  02:30        0.31       0.311       0.434
  YSB6556              JUNCTION      0.00   265.11     0  02:30           0        0.41       0.317
  CC-1                 OUTFALL       0.00   683.00     0  02:30           0        0.41       0.000
  CC-2                 OUTFALL       0.00     0.00     0  00:00           0           0       0.000 ltr
  JK-1                 OUTFALL       0.00  1000.00     0  00:00           0           2       0.000
  JK-2                 OUTFALL       0.00  1000.00     0  02:10           0       0.974       0.000
  WSC                  OUTFALL       0.00  1468.53     0  02:33           0        13.2       0.000
  CC-storage           STORAGE       0.00  2925.83     0  02:28           0        9.34       0.108
  JK-storage           STORAGE       0.00  1694.68     0  02:31           0        2.98     -18.641
  XR-storage           STORAGE     200.00   200.00     0  00:00        4.32        4.92       0.001
  
  
  **********************
  Node Surcharge Summary
  **********************
  
  Surcharging occurs when water rises above the top of the highest conduit.
  ---------------------------------------------------------------------
                                               Max. Height   Min. Depth
                                   Hours       Above Crown    Below Rim
  Node                 Type      Surcharged         Meters       Meters
  ---------------------------------------------------------------------
  HS02004478           JUNCTION        0.27          0.644        0.296
  HS02004479           JUNCTION        0.38          0.900        0.150
  HS02004480           JUNCTION        0.40          0.967        0.133
  HS02004770           JUNCTION        0.33          0.720        0.000
  HS02004777           JUNCTION        0.33          0.780        0.000
  HS02004785           JUNCTION        0.29          0.790        0.000
  HS02004788           JUNCTION        0.28          0.720        0.000
  HS02004792           JUNCTION        0.37          0.900        0.000
  HS02004799           JUNCTION        0.48          1.060        0.000
  HS02004802           JUNCTION        0.41          1.077        0.133
  HS02004807           JUNCTION        0.40          1.220        0.000
  HS02004817           JUNCTION        0.82          1.740        0.000
  HS02004824           JUNCTION        0.29          1.310        0.000
  HS02004830           JUNCTION        0.26          1.330        0.000
  HS02004837           JUNCTION        0.23          1.295        0.045
  HS02004842           JUNCTION        0.34          1.520        0.000
  HS02004848           JUNCTION        0.19          1.370        0.000
  HS02004852           JUNCTION        0.21          1.420        0.000
  HS02004856           JUNCTION        0.21          1.300        0.000
  HS02004862           JUNCTION        0.24          1.300        0.000
  HS02004870           JUNCTION        0.25          1.140        0.260
  HS02004876           JUNCTION        0.31          1.205        0.355
  HS02004881           JUNCTION        0.30          0.957        0.493
  HS02004901           JUNCTION        0.33          0.720        0.000
  WS02004401           JUNCTION        1.13          0.767        0.893
  WS02004402           JUNCTION        1.15          0.709        1.031
  WS02004403           JUNCTION        1.16          0.649        1.381
  WS02004404           JUNCTION        1.42          0.659        2.121
  WS02004405           JUNCTION        1.39          0.609        2.191
  WS02004406           JUNCTION        1.37          0.508        1.942
  WS02004409           JUNCTION        0.67          0.340        2.020
  WS02004410           JUNCTION        0.63          0.258        2.282
  WS02004411           JUNCTION        0.56          0.176        2.354
  WS02004412           JUNCTION        0.50          0.084        2.226
  WS02004413           JUNCTION        0.93          0.132        2.068
  WS02006109           JUNCTION        4.00          1.820        0.000
  WS02006110           JUNCTION        1.61          1.449        0.401
  WS02006111           JUNCTION        0.85          0.829        1.041
  WS02006112           JUNCTION        1.81          1.249        0.431
  WS02006113           JUNCTION        0.88          0.954        0.976
  WS02006115           JUNCTION        1.08          0.835        1.415
  WS02006116           JUNCTION        1.09          0.781        1.509
  WS02006228           JUNCTION        4.00          2.195        0.005
  WS02006229           JUNCTION        0.59          1.039        0.031
  WS02006230           JUNCTION        1.43          1.570        0.000
  WS02006231           JUNCTION        1.64          1.479        0.051
  WS02006232           JUNCTION        3.93          1.480        0.000
  WS02006234           JUNCTION        3.44          1.240        0.000
  WS02006235           JUNCTION        3.93          1.273        0.017
  WS02006238           JUNCTION        3.93          1.279        0.151
  WS02006239           JUNCTION        3.93          1.110        0.180
  WS02006240           JUNCTION        3.93          0.981        0.409
  WS02006242           JUNCTION        3.93          0.820        0.000
  WS02006243           JUNCTION        3.92          0.770        0.000
  WS02006245           JUNCTION        3.92          0.850        0.000
  WS02006247           JUNCTION        3.92          0.590        0.170
  WS02006248           JUNCTION        3.92          0.380        0.000
  WS02006249           JUNCTION        3.93          0.390        0.000
  WS02006251           JUNCTION        1.79          1.114        0.066
  WS02006252           JUNCTION        3.99          1.100        0.000
  WS02006253           JUNCTION        1.84          1.859        0.621
  WS02006256           JUNCTION        4.62          2.050        0.000
  WS02006280           JUNCTION        0.49          0.691        0.089
  WS02006284           JUNCTION        0.43          0.664        0.136
  WS02006287           JUNCTION        0.35          0.722        0.168
  YS02001580           JUNCTION        0.31          0.450        0.000
  YS02001583           JUNCTION        0.32          0.356        0.144
  YS02001586           JUNCTION        0.46          0.510        0.000
  YS02001590           JUNCTION        0.53          0.747        0.003
  YS02001593           JUNCTION        0.54          0.705        0.135
  YS02001596           JUNCTION        0.65          0.946        0.124
  YS02001600           JUNCTION        0.85          1.190        0.000
  YS02001601           JUNCTION        1.75          1.440        0.000
  YS02001602           JUNCTION        1.59          1.270        0.000
  YS02001605           JUNCTION        1.55          1.174        0.006
  YS02001607           JUNCTION        0.60          0.645        0.035
  YS02001610           JUNCTION        0.64          0.680        0.000
  YS02001613           JUNCTION        0.60          0.652        0.048
  YS02001616           JUNCTION        0.54          0.582        0.028
  YS02001619           JUNCTION        0.52          0.570        0.040
  YS02001622           JUNCTION        0.54          0.552        0.068
  YS02001625           JUNCTION        1.08          0.780        0.000
  YS02001629           JUNCTION        0.49          0.470        0.000
  YS02001633           JUNCTION        1.48          0.984        0.076
  YS02001641           JUNCTION        1.56          0.951        0.149
  YS02001644           JUNCTION        1.56          0.920        0.000
  YS02001647           JUNCTION        0.95          0.700        0.200
  YS02001649           JUNCTION        1.63          0.876        0.174
  YS02001652           JUNCTION        0.83          0.668        0.462
  YS02001655           JUNCTION        0.26          0.599        0.601
  YS02001658           JUNCTION        0.07          0.488        0.812
  YS02001748           JUNCTION        0.01          0.329        0.861
  YS02001751           JUNCTION        0.17          0.464        0.736
  YS02001754           JUNCTION        0.57          0.559        0.591
  YS02001757           JUNCTION        1.99          0.904        0.306
  YS02001759           JUNCTION        1.69          0.848        0.362
  YS02001762           JUNCTION        1.59          0.836        0.314
  YS02001765           JUNCTION        1.45          0.816        0.284
  YS02001767           JUNCTION        1.34          0.820        0.210
  YS02001770           JUNCTION        1.22          0.842        0.078
  YS02001774           JUNCTION        1.53          0.958        0.092
  YS02001779           JUNCTION        0.42          0.680        0.000
  YS02001783           JUNCTION        0.33          0.904        0.696
  YS02001784           JUNCTION        0.31          0.876        0.614
  YS02001786           JUNCTION        0.22          0.714        0.716
  YS02001788           JUNCTION        0.02          0.618        0.862
  YS02001790           JUNCTION        0.03          0.700        0.457
  YS02001791           JUNCTION        0.03          0.741        1.179
  YS02001793           JUNCTION        0.04          0.797        1.803
  YS02001882           JUNCTION        0.29          0.647        0.183
  YS02001884           JUNCTION        0.30          0.676        0.194
  YS02001887           JUNCTION        0.33          0.755        0.195
  YS02001890           JUNCTION        0.34          0.760        0.000
  YS02001895           JUNCTION        0.28          0.566        0.184
  YS02001898           JUNCTION        0.27          0.537        0.203
  YS02001901           JUNCTION        0.32          0.677        0.193
  YS02001904           JUNCTION        0.31          0.638        0.212
  YS02001907           JUNCTION        0.52          0.950        0.000
  YS02001910           JUNCTION        0.36          0.982        0.118
  YS02001915           JUNCTION        0.28          0.933        0.067
  YS02001918           JUNCTION        0.20          0.810        0.000
  YS02001920           JUNCTION        0.22          1.080        0.060
  YS02001923           JUNCTION        0.01          0.799        0.021
  YS02001926           JUNCTION        0.01          0.900        0.000
  YS02001929           JUNCTION        0.01          0.780        0.000
  YS02006553           JUNCTION        0.54          1.031        0.159
  YS02006556           JUNCTION        0.44          1.045        0.305
  YS02006558           JUNCTION        0.43          1.057        0.343
  YS02006561           JUNCTION        0.17          0.482        0.668
  YS02163301           JUNCTION        1.35          0.914        0.116
  YS02163601           JUNCTION        1.70          1.030        0.050
  YS02164001           JUNCTION        1.50          0.951        0.149
  YSB1154              JUNCTION        0.57          1.161        0.239
  YSB1171              JUNCTION        0.57          1.100        0.000
  YSB1174              JUNCTION        0.51          1.081        0.169
  YSB6556              JUNCTION        0.46          1.024        0.076
  
  
  *********************
  Node Flooding Summary
  *********************
  
  Flooding refers to all water that overflows a node, whether it ponds or not.
  --------------------------------------------------------------------------
                                                             Total   Maximum
                                 Maximum   Time of Max       Flood    Ponded
                        Hours       Rate    Occurrence      Volume     Depth
  Node                 Flooded       LPS   days hr:min    10^6 ltr    Meters
  --------------------------------------------------------------------------
  HS02004770              0.19    380.52      0  02:30       0.137     0.000
  HS02004777              0.01     27.46      0  02:23       0.000     0.000
  HS02004785              0.01    113.05      0  02:23       0.000     0.000
  HS02004788              0.01    206.19      0  02:23       0.001     0.000
  HS02004792              0.18    743.35      0  02:30       0.250     0.000
  HS02004799              0.03     61.40      0  02:26       0.001     0.000
  HS02004807              0.01     29.29      0  02:26       0.000     0.000
  HS02004817              0.01     17.60      0  02:26       0.000     0.000
  HS02004824              0.01     22.92      0  02:26       0.000     0.000
  HS02004830              0.01     15.71      0  02:26       0.000     0.000
  HS02004842              0.01    161.39      0  02:26       0.001     0.000
  HS02004848              0.01    134.86      0  02:26       0.000     0.000
  HS02004852              0.01     77.59      0  02:26       0.000     0.000
  HS02004856              0.01    252.99      0  02:26       0.000     0.000
  HS02004862              0.01    157.54      0  02:26       0.000     0.000
  HS02004901              0.24    480.25      0  02:30       0.285     0.000
  WS02006109              0.22    187.13      0  02:30       0.087     0.000
  WS02006230              0.44    540.29      0  02:30       0.516     0.000
  WS02006232              0.11      0.60      0  02:33       0.000     0.000
  WS02006234              0.47    128.36      0  02:30       0.174     0.000
  WS02006242              0.54    137.46      0  02:27       0.236     0.000
  WS02006243              0.01     24.07      0  02:04       0.000     0.000
  WS02006245              0.01     64.25      0  02:04       0.000     0.000
  WS02006248              0.76    340.20      0  02:21       0.756     0.000
  WS02006249              1.55   1274.87      0  02:26       2.988     0.000
  WS02006252              0.25    408.41      0  02:26       0.180     0.000
  WS02006256              0.60    296.05      0  02:20       0.333     0.000
  YS02001580              0.01    100.99      0  02:22       0.000     0.000
  YS02001586              0.21    110.97      0  02:30       0.042     0.000
  YS02001600              0.01      1.69      0  02:22       0.000     0.000
  YS02001601              0.41    704.39      0  02:30       0.562     0.000
  YS02001602              0.34     61.99      0  02:29       0.065     0.000
  YS02001610              0.28    251.86      0  02:30       0.142     0.000
  YS02001625              0.27    890.35      0  02:30       0.404     0.000
  YS02001629              0.04     29.70      0  02:28       0.002     0.000
  YS02001644              0.05     84.02      0  02:28       0.010     0.000
  YS02001779              0.01    227.47      0  02:25       0.001     0.000
  YS02001890              0.01     24.16      0  02:26       0.000     0.000
  YS02001907              0.16    912.62      0  02:29       0.283     0.000
  YS02001918              0.01     86.36      0  02:27       0.001     0.000
  YS02001926              0.01     73.62      0  02:27       0.000     0.000
  YS02001929              0.01    216.77      0  02:27       0.001     0.000
  YSB1171                 0.10    287.02      0  02:30       0.055     0.000
  JK-storage              0.01    751.00      0  02:29       0.029     0.000
  
  
  **********************
  Storage Volume Summary
  **********************
  
  --------------------------------------------------------------------------------------------------
                         Average     Avg  Evap Exfil       Maximum     Max    Time of Max    Maximum
                          Volume    Pcnt  Pcnt  Pcnt        Volume    Pcnt     Occurrence    Outflow
  Storage Unit           1000 m3    Full  Loss  Loss       1000 m3    Full    days hr:min        LPS
  --------------------------------------------------------------------------------------------------
  CC-storage               4.110      64     0     0         5.946      93       0  03:08    1083.00
  JK-storage               0.011       4     0     0         0.291     100       0  02:29    2300.00
  XR-storage               0.949      66     0     0         1.039      72       0  06:00     190.00
  
  
  ***********************
  Outfall Loading Summary
  ***********************
  
  -----------------------------------------------------------
                         Flow       Avg       Max       Total
                         Freq      Flow      Flow      Volume
  Outfall Node           Pcnt       LPS       LPS    10^6 ltr
  -----------------------------------------------------------
  CC-1                   4.25    683.00    683.00       0.410
  CC-2                   0.00      0.00      0.00       0.000
  JK-1                  80.89    170.90   1000.00       2.004
  JK-2                  20.27    332.00   1000.00       0.974
  WSC                   99.96    754.04   1468.53      13.189
  -----------------------------------------------------------
  System                41.08   1939.94   1468.53      16.576
  
  
  ********************
  Link Flow Summary
  ********************
  
  -----------------------------------------------------------------------------
                                 Maximum  Time of Max   Maximum    Max/    Max/
                                  |Flow|   Occurrence   |Veloc|    Full    Full
  Link                 Type          LPS  days hr:min     m/sec    Flow   Depth
  -----------------------------------------------------------------------------
  1                    CONDUIT   1468.53     0  02:33      3.68    0.51    0.51
  HS02004478WS02006287 CONDUIT   2238.79     0  02:30      2.62    0.63    1.00
  HS02004479HS02004480 CONDUIT    405.23     0  02:26      0.58    0.39    1.00
  HS02004480HS02004478 CONDUIT   2069.15     0  02:25      2.96    8.71    1.00
  HS02004770HS02004777 CONDUIT    744.91     0  02:23      1.06    1.36    1.00
  HS02004777HS02004785 CONDUIT    767.03     0  02:23      1.15    0.94    1.00
  HS02004785HS02004788 CONDUIT    615.66     0  02:37      1.36    4.64    1.00
  HS02004788HS02004792 CONDUIT    819.72     0  02:24      1.46    0.54    1.00
  HS02004792HS02004799 CONDUIT   1561.61     0  02:24      2.23    0.96    1.00
  HS02004799HS02004480 CONDUIT   1720.38     0  02:25      2.46    2.17    1.00
  HS02004802HS02004478 CONDUIT    671.42     0  02:30      0.96    0.59    1.00
  HS02004807HS02004802 CONDUIT    670.57     0  02:30      0.96    1.28    1.00
  HS02004817HS02004807 CONDUIT    385.75     0  02:30      0.55    0.23    1.00
  HS02004817HS02004824 CONDUIT    384.28     0  02:30      0.57    0.17    1.00
  HS02004824HS02004830 CONDUIT    622.87     0  02:23      0.91    0.82    1.00
  HS02004830HS02004837 CONDUIT    622.89     0  02:24      0.98    0.62    1.00
  HS02004837HS02004842 CONDUIT    785.82     0  02:26      1.12    0.47    1.00
  HS02004842HS02004848 CONDUIT    785.85     0  02:26      1.24    0.46    1.00
  HS02004848HS02004852 CONDUIT   1009.80     0  02:26      1.57    1.14    1.00
  HS02004852HS02004856 CONDUIT    979.70     0  02:26      1.45    1.12    1.00
  HS02004856HS02004862 CONDUIT   1030.51     0  02:26      1.68    1.03    1.00
  HS02004862HS02004870 CONDUIT   1056.83     0  02:25      1.79    1.14    1.00
  HS02004870HS02004876 CONDUIT   1123.93     0  02:26      1.61    0.75    1.00
  HS02004876HS02004881 CONDUIT   1249.87     0  02:26      2.13   13.29    1.00
  HS02004881HS02006253 CONDUIT   1321.90     0  02:26      2.32    0.26    1.00
  HS02004901HS02004770 CONDUIT    264.83     0  02:35      0.38    1.00    1.00
  WS02001211WS02001212 CONDUIT    216.46     0  02:55      0.54    0.17    0.68
  WS02001212WS02001213 CONDUIT    223.69     0  02:55      1.03    0.35    0.55
  WS02001213WS02003059 CONDUIT    230.83     0  02:55      0.47    0.38    0.88
  WS02003059WS02003060 CONDUIT    240.55     0  02:54      0.67    0.16    0.80
  WS02003060WS02003069 CONDUIT   1466.76     0  02:31      2.07    0.57    0.60
  WS02003066WSF200     CONDUIT   1260.52     0  02:30      3.23    0.21    0.38
  WS02003067WS02003066 CONDUIT   1260.48     0  02:30      1.96    0.40    0.55
  WS02003069WS02003072 CONDUIT   1466.70     0  02:32      1.88    0.71    0.65
  WS02003072WS02003073 CONDUIT   1466.74     0  02:32      2.03    3.17    0.61
  WS02004138WS02004139 CONDUIT    192.44     0  00:29      2.15    0.04    0.41
  WS02004139WS02001211 CONDUIT    199.92     0  02:55      0.54    0.25    0.60
  WS02004401WS02004402 CONDUIT   1262.25     0  02:30      1.61    1.52    1.00
  WS02004402WS02004403 CONDUIT   1261.75     0  02:30      1.61    1.81    1.00
  WS02004403WS02004404 CONDUIT   1262.88     0  02:29      1.61    0.91    1.00
  WS02004404WS02004405 CONDUIT   1262.79     0  02:30      1.61   12.37    1.00
  WS02004405WS02004406 CONDUIT   1262.38     0  02:30      1.61    2.49    1.00
  WS02004406WS02004407 CONDUIT   1262.14     0  02:30      1.72    0.56    0.93
  WS02004407WS02004409 CONDUIT   1260.32     0  02:30      1.85    0.45    0.93
  WS02004409WS02004410 CONDUIT   1260.96     0  02:30      1.61    1.63    1.00
  WS02004410WS02004411 CONDUIT   1260.32     0  02:30      1.60    1.72    1.00
  WS02004411WS02004412 CONDUIT   1260.36     0  02:30      1.60    1.79    1.00
  WS02004412WS02004413 CONDUIT   1260.61     0  02:30      1.61    0.84    1.00
  WS02004413WS02003067 CONDUIT   1260.60     0  02:30      1.96    0.54    0.76
  WS02006109WS02006110 CONDUIT   1121.97     0  02:37      2.23    2.16    1.00
  WS02006110WS02006113 CONDUIT   1122.09     0  02:37      2.23    1.02    1.00
  WS02006111WS02006112 CONDUIT   1122.07     0  02:37      2.23    0.53    1.00
  WS02006112WS02006115 CONDUIT   1261.36     0  02:29      1.61    0.74    1.00
  WS02006113WS02006111 CONDUIT   1121.95     0  02:37      2.69    1.34    1.00
  WS02006115WS02006116 CONDUIT   1261.88     0  02:30      1.61    1.62    1.00
  WS02006116WS02004401 CONDUIT   1261.47     0  02:30      1.61    1.74    1.00
  WS02006228WS02006109 CONDUIT   1255.16     0  02:30      2.50    5.48    1.00
  WS02006229WS02006228 CONDUIT   1257.49     0  02:30      2.50    4.16    1.00
  WS02006230WS02006229 CONDUIT    982.75     0  02:30      2.55   21.87    1.00
  WS02006231WS02006230 CONDUIT    506.66     0  03:20      1.32    7.69    1.00
  WS02006232WS02006231 CONDUIT    505.31     0  03:20      1.31    1.06    1.00
  WS02006234WS02006232 CONDUIT    503.28     0  03:20      1.39    1.02    1.00
  WS02006235WS02006234 CONDUIT    498.31     0  03:20      1.29    5.26    1.00
  WS02006238WS02006235 CONDUIT    418.74     0  03:39      1.46    0.93    1.00
  WS02006239WS02006238 CONDUIT    418.60     0  03:39      1.09    1.34    1.00
  WS02006240WS02006239 CONDUIT    418.55     0  03:39      1.09    1.32    1.00
  WS02006242WS02006240 CONDUIT    418.47     0  03:39      1.09    1.66    1.00
  WS02006243WS02006242 CONDUIT    427.06     0  02:04      1.24    0.91    1.00
  WS02006245WS02006243 CONDUIT    455.61     0  02:03      1.45    1.35    1.00
  WS02006247WS02006245 CONDUIT    483.22     0  02:03      1.48    3.83    1.00
  WS02006248WS02006247 CONDUIT    483.42     0  02:03      1.36    1.05    1.00
  WS02006249WS02006248 CONDUIT    505.32     0  02:02      1.45    2.77    1.00
  WS02006251WS02006249 CONDUIT   1336.14     0  02:26      3.47    3.85    1.00
  WS02006252WS02006251 CONDUIT    408.36     0  02:05      3.25    1.50    1.00
  WS02006253WS02006251 CONDUIT   1341.48     0  02:26      3.49    4.02    1.00
  WS02006256WS02006235 CONDUIT    288.92     0  00:00      4.23    3.06    1.00
  WS02006280WS02006229 CONDUIT   2240.69     0  02:30      3.97    0.48    1.00
  WS02006284WS02006280 CONDUIT   2239.70     0  02:30      3.01    0.94    1.00
  WS02006287WS02006284 CONDUIT   2238.11     0  02:30      2.85    1.04    1.00
  WSF200WS02003060     CONDUIT   1260.35     0  02:31      2.27    0.28    0.49
  YS02001580YS02001583 CONDUIT    128.66     0  02:22      0.65    0.50    1.00
  YS02001583YS02001586 CONDUIT    157.69     0  02:22      0.66    0.24    1.00
  YS02001586YS02001590 CONDUIT    317.88     0  02:30      1.25    0.56    1.00
  YS02001590YS02001593 CONDUIT    318.06     0  02:30      1.12    2.00    1.00
  YS02001593YS02001596 CONDUIT    317.90     0  02:31      1.60    0.50    1.00
  YS02001596YS02001600 CONDUIT    318.12     0  02:30      1.13    0.62    1.00
  YS02001600YS02001601 CONDUIT    317.83     0  02:31      1.12    0.55    1.00
  YS02001601YS02001602 CONDUIT    514.52     0  02:22      1.82    1.86    1.00
  YS02001602YS02001605 CONDUIT    514.40     0  02:22      1.82   10.89    1.00
  YS02001605YS02001607 CONDUIT    514.22     0  02:22      1.82    2.82    1.00
  YS02001607YS02001610 CONDUIT    514.21     0  02:22      0.65    0.49    1.00
  YS02001610YS02001613 CONDUIT    514.30     0  02:22      0.65    0.59    1.00
  YS02001613YS02001616 CONDUIT    513.78     0  02:21      0.66    0.44    1.00
  YS02001616YS02001619 CONDUIT    503.16     0  02:22      0.66    0.87    1.00
  YS02001619YS02001622 CONDUIT    912.99     0  02:22      1.19    1.35    1.00
  YS02001622YS02001625 CONDUIT    916.12     0  02:22      1.17    0.49    1.00
  YS02001625YS02001629 CONDUIT    917.65     0  02:22      1.17    0.44    1.00
  YS02001629YS02163301 CONDUIT    909.42     0  02:24      1.16    1.12    1.00
  YS02001633YS02163601 CONDUIT   1288.51     0  02:24      1.64    1.35    1.00
  YS02001641YS02001644 CONDUIT   1287.39     0  02:24      1.64    4.16    1.00
  YS02001644YS02001647 CONDUIT   1641.33     0  02:25      2.16    0.96    1.00
  YS02001647YS02001649 CONDUIT   1644.02     0  02:25      2.27    0.87    1.00
  YS02001649YS02001757 CONDUIT   1836.95     0  02:24      2.34    1.11    1.00
  YS02001652YS02001649 CONDUIT    531.98     0  02:28      0.72    0.26    1.00
  YS02001655YS02001652 CONDUIT    532.36     0  02:28      1.31    0.26    1.00
  YS02001658YS02001655 CONDUIT    531.33     0  02:28      1.89    0.23    1.00
  YS02001661YS02001658 CONDUIT    552.60     0  02:27      2.18    0.22    0.93
  YS02001664YS02001661 CONDUIT    602.36     0  02:28      2.13    0.19    0.62
  YS02001745YS02001748 CONDUIT    552.57     0  02:27      2.02    0.21    0.81
  YS02001748YS02001751 CONDUIT    342.02     0  02:28      1.65    0.17    1.00
  YS02001751YS02001754 CONDUIT    334.47     0  02:31      1.47    0.16    1.00
  YS02001754YS02001757 CONDUIT    334.02     0  02:31      0.46    0.13    1.00
  YS02001757CaochengTiaoxuchi CONDUIT   2925.83     0  02:28      3.73    1.27    1.00
  YS02001759YS02001757 CONDUIT   1095.45     0  02:30      1.39    0.78    1.00
  YS02001762YS02001759 CONDUIT    650.93     0  02:30      0.83    0.75    1.00
  YS02001765YS02001762 CONDUIT    648.87     0  02:30      0.83    0.61    1.00
  YS02001767YS02001765 CONDUIT    646.91     0  02:30      0.82    0.81    1.00
  YS02001770YS02001767 CONDUIT    644.77     0  02:30      0.82    2.55    1.00
  YS02001774YS02001770 CONDUIT    320.61     0  02:25      0.41    0.20    1.00
  YS02001779YS02001774 CONDUIT    327.52     0  02:25      0.43    0.17    1.00
  YS02001783YS02001784 CONDUIT   1152.50     0  02:29      2.29    1.59    1.00
  YS02001784YS02001785 CONDUIT   1153.90     0  02:29      2.30    2.69    1.00
  YS02001786YS02001788 CONDUIT   1155.67     0  02:29      2.46    2.23    1.00
  YS02001788YS02001790 CONDUIT   1200.17     0  02:31      2.70    0.88    1.00
  YS02001790YS02001791 CONDUIT   1353.87     0  02:31      3.45    1.47    1.00
  YS02001791YS02001793 CONDUIT   1413.48     0  02:31      6.70    0.61    1.00
  YS02001793JiankangQianchi CONDUIT   1694.68     0  02:31     24.24    0.13    1.00
  YS02001882YS02001884 CONDUIT     29.13     0  02:23      0.06    0.03    1.00
  YS02001884YS02001887 CONDUIT     66.97     0  02:23      0.09    0.09    1.00
  YS02001887YS02001890 CONDUIT    479.71     0  02:29      0.61    0.82    1.00
  YS02001890YS02001895 CONDUIT    479.53     0  02:30      0.61    0.22    1.00
  YS02001895YS02001898 CONDUIT    479.45     0  02:30      0.61    0.83    1.00
  YS02001898YS02001901 CONDUIT    480.77     0  02:30      0.61    0.31    1.00
  YS02001901YS02001904 CONDUIT    480.70     0  02:30      0.61    0.75    1.00
  YS02001904YS02001907 CONDUIT    480.64     0  02:30      0.61    0.17    1.00
  YS02001907YS02006553 CONDUIT    791.98     0  02:38      0.88    0.93    1.00
  YS02001910YS02001907 CONDUIT    964.66     0  02:28      1.23    0.54    1.00
  YS02001915YS02001910 CONDUIT    964.58     0  02:28      1.23    0.48    1.00
  YS02001918YS02001915 CONDUIT    450.29     0  02:28      0.57    0.25    1.00
  YS02001920YS02001918 CONDUIT    448.04     0  02:28      0.65    0.43    1.00
  YS02001923YS02001920 CONDUIT    444.76     0  02:28      0.69    0.20    1.00
  YS02001926YS02001923 CONDUIT    414.64     0  02:27      0.95    0.59    1.00
  YS02001929YS02001926 CONDUIT    411.07     0  02:27      1.09    0.20    1.00
  YS02006553YS02006556 CONDUIT    791.76     0  02:37      1.01    0.68    1.00
  YS02006556YS02006558 CONDUIT    792.62     0  02:38      1.01    0.63    1.00
  YS02006558YS02006561 CONDUIT   1151.75     0  02:29      4.07    2.55    1.00
  YS02006561YS02001783 CONDUIT   1151.92     0  02:29      2.29    0.60    1.00
  YS02163301YS02001633 CONDUIT    909.03     0  02:24      1.16    0.85    1.00
  YS02163601YS02164001 CONDUIT   1288.20     0  02:24      1.64    1.14    1.00
  YS02164001YS02001641 CONDUIT   1288.08     0  02:24      1.64    1.76    1.00
  YSB1154YSB6556       CONDUIT    265.11     0  02:30      0.69    0.48    1.00
  YSB1171HS02004479    CONDUIT    403.51     0  02:26      0.80    0.27    1.00
  YSB1174YSB1171       CONDUIT    224.80     0  02:29      0.58    0.34    1.00
  YSB6556YSB1171       CONDUIT    266.20     0  02:30      0.69    0.27    1.00
  CC-R1                PUMP       683.00     0  02:30              1.00
  CC-R2                PUMP         0.00     0  00:00              0.00
  CC-S1                PUMP       200.00     0  02:00              1.00
  CC-S2                PUMP       200.00     0  02:00              1.00
  JK-R1                PUMP      1000.00     0  00:00              1.00
  JK-R2                PUMP      1000.00     0  02:10              1.00
  JK-S                 PUMP       300.00     0  00:00              1.00
  XR-1                 PUMP        95.00     0  00:10              1.00
  XR-2                 PUMP        95.00     0  00:29              1.00
  XR-3                 PUMP         0.00     0  00:00              0.00
  XR-4                 PUMP         0.00     0  00:00              0.00
  
  
  ***************************
  Flow Classification Summary
  ***************************
  
  -------------------------------------------------------------------------------------
                      Adjusted    ---------- Fraction of Time in Flow Class ---------- 
                       /Actual         Up    Down  Sub   Sup   Up    Down  Norm  Inlet 
  Conduit               Length    Dry  Dry   Dry   Crit  Crit  Crit  Crit  Ltd   Ctrl  
  -------------------------------------------------------------------------------------
  1                       1.00   0.00  0.00  0.00  0.00  1.00  0.00  0.00  0.36  0.00
  HS02004478WS02006287    1.00   0.07  0.00  0.00  0.64  0.28  0.00  0.00  0.50  0.00
  HS02004479HS02004480    1.00   0.02  0.00  0.00  0.98  0.00  0.00  0.00  0.17  0.00
  HS02004480HS02004478    1.00   0.06  0.00  0.00  0.55  0.00  0.00  0.40  0.00  0.00
  HS02004770HS02004777    1.00   0.00  0.06  0.00  0.94  0.00  0.00  0.00  0.05  0.00
  HS02004777HS02004785    1.00   0.00  0.00  0.00  1.00  0.00  0.00  0.00  0.20  0.00
  HS02004785HS02004788    1.00   0.00  0.00  0.00  1.00  0.00  0.00  0.00  0.00  0.00
  HS02004788HS02004792    1.00   0.00  0.00  0.00  0.99  0.01  0.00  0.00  0.91  0.00
  HS02004792HS02004799    1.00   0.00  0.00  0.00  0.99  0.01  0.00  0.00  0.87  0.00
  HS02004799HS02004480    1.00   0.00  0.02  0.00  0.93  0.00  0.05  0.00  0.00  0.00
  HS02004802HS02004478    1.00   0.06  0.00  0.00  0.94  0.00  0.00  0.00  0.03  0.00
  HS02004807HS02004802    1.00   0.06  0.00  0.00  0.94  0.00  0.00  0.01  0.01  0.00
  HS02004817HS02004807    1.00   0.00  0.06  0.00  0.94  0.00  0.00  0.00  0.01  0.00
  HS02004817HS02004824    1.00   0.00  0.00  0.00  1.00  0.00  0.00  0.00  0.83  0.00
  HS02004824HS02004830    1.00   0.00  0.00  0.00  1.00  0.00  0.00  0.00  0.01  0.00
  HS02004830HS02004837    1.00   0.00  0.00  0.00  1.00  0.00  0.00  0.00  0.89  0.00
  HS02004837HS02004842    1.00   0.00  0.00  0.00  0.99  0.01  0.00  0.00  0.14  0.00
  HS02004842HS02004848    1.00   0.00  0.06  0.00  0.94  0.00  0.00  0.00  0.46  0.00
  HS02004848HS02004852    1.00   0.06  0.00  0.00  0.94  0.00  0.00  0.00  0.58  0.00
  HS02004852HS02004856    1.00   0.06  0.01  0.00  0.94  0.00  0.00  0.00  0.63  0.00
  HS02004856HS02004862    1.00   0.00  0.09  0.00  0.91  0.00  0.00  0.00  0.65  0.00
  HS02004862HS02004870    1.00   0.00  0.00  0.00  1.00  0.00  0.00  0.00  0.07  0.00
  HS02004870HS02004876    1.00   0.01  0.00  0.00  0.99  0.00  0.00  0.00  0.86  0.00
  HS02004876HS02004881    1.00   0.01  0.00  0.00  0.78  0.20  0.00  0.00  0.00  0.00
  HS02004881HS02006253    1.00   0.03  0.00  0.00  0.84  0.00  0.00  0.13  0.59  0.00
  HS02004901HS02004770    1.00   0.05  0.00  0.00  0.94  0.00  0.00  0.00  0.01  0.00
  WS02001211WS02001212    1.00   0.00  0.02  0.00  0.98  0.00  0.00  0.00  0.00  0.00
  WS02001212WS02001213    1.00   0.02  0.00  0.00  0.82  0.00  0.16  0.00  0.00  0.00
  WS02001213WS02003059    1.00   0.00  0.01  0.00  0.99  0.00  0.00  0.00  0.00  0.00
  WS02003059WS02003060    1.00   0.00  0.00  0.00  1.00  0.00  0.00  0.00  0.04  0.00
  WS02003060WS02003069    1.00   0.00  0.00  0.00  0.98  0.02  0.00  0.00  0.27  0.00
  WS02003066WSF200        1.00   0.15  0.00  0.00  0.00  0.85  0.00  0.00  0.34  0.00
  WS02003067WS02003066    1.00   0.14  0.01  0.00  0.86  0.00  0.00  0.00  0.00  0.00
  WS02003069WS02003072    1.00   0.00  0.00  0.00  1.00  0.00  0.00  0.00  0.31  0.00
  WS02003072WS02003073    1.00   0.00  0.00  0.00  0.00  0.00  0.00  1.00  0.00  0.00
  WS02004138WS02004139    1.00   0.01  0.00  0.00  0.98  0.00  0.00  0.00  0.97  0.00
  WS02004139WS02001211    1.00   0.00  0.01  0.00  0.99  0.00  0.00  0.00  0.01  0.00
  WS02004401WS02004402    1.00   0.03  0.00  0.00  0.97  0.00  0.00  0.00  0.04  0.00
  WS02004402WS02004403    1.00   0.03  0.00  0.00  0.97  0.00  0.00  0.00  0.00  0.00
  WS02004403WS02004404    1.00   0.00  0.03  0.00  0.97  0.00  0.00  0.00  0.04  0.00
  WS02004404WS02004405    1.00   0.00  0.00  0.00  1.00  0.00  0.00  0.00  0.00  0.00
  WS02004405WS02004406    1.00   0.00  0.00  0.00  1.00  0.00  0.00  0.00  0.04  0.00
  WS02004406WS02004407    1.00   0.00  0.10  0.00  0.90  0.00  0.00  0.00  0.00  0.00
  WS02004407WS02004409    1.00   0.10  0.00  0.00  0.89  0.01  0.00  0.00  0.60  0.00
  WS02004409WS02004410    1.00   0.10  0.00  0.00  0.90  0.00  0.00  0.00  0.00  0.00
  WS02004410WS02004411    1.00   0.10  0.00  0.00  0.90  0.00  0.00  0.00  0.00  0.00
  WS02004411WS02004412    1.00   0.10  0.00  0.00  0.90  0.00  0.00  0.00  0.00  0.00
  WS02004412WS02004413    1.00   0.11  0.00  0.00  0.89  0.01  0.00  0.00  0.01  0.00
  WS02004413WS02003067    1.00   0.11  0.03  0.00  0.00  0.00  0.86  0.00  0.00  0.00
  WS02006109WS02006110    1.00   0.00  0.01  0.00  0.99  0.00  0.00  0.00  0.00  0.00
  WS02006110WS02006113    1.00   0.01  0.01  0.00  0.99  0.00  0.00  0.00  0.00  0.00
  WS02006111WS02006112    1.00   0.02  0.00  0.00  0.98  0.00  0.00  0.00  0.73  0.00
  WS02006112WS02006115    1.00   0.02  0.01  0.00  0.97  0.00  0.00  0.00  0.00  0.00
  WS02006113WS02006111    1.00   0.01  0.00  0.00  0.26  0.73  0.00  0.00  0.13  0.00
  WS02006115WS02006116    1.00   0.02  0.00  0.00  0.94  0.00  0.00  0.03  0.01  0.00
  WS02006116WS02004401    1.00   0.02  0.00  0.00  0.98  0.00  0.00  0.00  0.01  0.00
  WS02006228WS02006109    1.00   0.00  0.00  0.00  1.00  0.00  0.00  0.00  0.00  0.00
  WS02006229WS02006228    1.00   0.00  0.00  0.00  0.99  0.00  0.00  0.01  0.00  0.00
  WS02006230WS02006229    1.00   0.00  0.00  0.00  0.99  0.00  0.00  0.01  0.02  0.00
  WS02006231WS02006230    1.00   0.00  0.00  0.00  0.89  0.00  0.11  0.00  0.00  0.00
  WS02006232WS02006231    1.00   0.00  0.00  0.00  0.99  0.00  0.00  0.00  0.00  0.00
  WS02006234WS02006232    1.00   0.00  0.00  0.00  1.00  0.00  0.00  0.00  0.19  0.00
  WS02006235WS02006234    1.00   0.00  0.00  0.00  0.91  0.00  0.09  0.00  0.00  0.00
  WS02006238WS02006235    1.00   0.00  0.00  0.00  1.00  0.00  0.00  0.00  0.00  0.00
  WS02006239WS02006238    1.00   0.00  0.00  0.00  1.00  0.00  0.00  0.00  0.09  0.00
  WS02006240WS02006239    1.00   0.00  0.00  0.00  0.89  0.00  0.00  0.11  0.01  0.00
  WS02006242WS02006240    1.00   0.00  0.00  0.00  1.00  0.00  0.00  0.00  0.00  0.00
  WS02006243WS02006242    1.00   0.01  0.00  0.00  0.99  0.00  0.00  0.00  0.30  0.00
  WS02006245WS02006243    1.00   0.01  0.01  0.00  0.88  0.00  0.00  0.10  0.00  0.00
  WS02006247WS02006245    1.00   0.02  0.00  0.00  0.95  0.00  0.00  0.04  0.00  0.00
  WS02006248WS02006247    1.00   0.01  0.00  0.00  0.96  0.00  0.00  0.02  0.14  0.00
  WS02006249WS02006248    1.00   0.00  0.01  0.00  0.87  0.00  0.12  0.00  0.00  0.00
  WS02006251WS02006249    1.00   0.00  0.00  0.00  1.00  0.00  0.00  0.00  0.28  0.00
  WS02006252WS02006251    1.00   0.16  0.00  0.00  0.41  0.00  0.43  0.00  0.00  0.00
  WS02006253WS02006251    1.00   0.03  0.02  0.00  0.94  0.00  0.01  0.00  0.00  0.00
  WS02006256WS02006235    1.00   0.00  0.00  0.00  1.00  0.00  0.00  0.00  0.00  0.00
  WS02006280WS02006229    1.00   0.06  0.00  0.00  0.19  0.07  0.00  0.68  0.01  0.00
  WS02006284WS02006280    1.00   0.06  0.00  0.00  0.14  0.01  0.00  0.79  0.00  0.00
  WS02006287WS02006284    1.00   0.05  0.03  0.00  0.51  0.42  0.00  0.00  0.57  0.00
  WSF200WS02003060        1.00   0.00  0.15  0.00  0.03  0.82  0.00  0.00  0.01  0.00
  YS02001580YS02001583    1.00   0.24  0.45  0.00  0.31  0.00  0.00  0.00  0.52  0.00
  YS02001583YS02001586    1.00   0.15  0.48  0.00  0.37  0.00  0.00  0.00  0.52  0.00
  YS02001586YS02001590    1.00   0.05  0.00  0.00  0.60  0.04  0.00  0.30  0.49  0.00
  YS02001590YS02001593    1.00   0.06  0.00  0.00  0.17  0.00  0.77  0.00  0.00  0.00
  YS02001593YS02001596    1.00   0.06  0.00  0.00  0.22  0.05  0.00  0.67  0.06  0.00
  YS02001596YS02001600    1.00   0.06  0.00  0.00  0.49  0.01  0.00  0.43  0.14  0.00
  YS02001600YS02001601    1.00   0.06  0.00  0.00  0.94  0.00  0.00  0.00  0.32  0.00
  YS02001601YS02001602    1.00   0.05  0.01  0.00  0.94  0.00  0.00  0.00  0.00  0.00
  YS02001602YS02001605    1.00   0.06  0.00  0.00  0.94  0.00  0.00  0.00  0.00  0.00
  YS02001605YS02001607    1.00   0.06  0.00  0.00  0.94  0.00  0.00  0.00  0.00  0.00
  YS02001607YS02001610    1.00   0.06  0.01  0.00  0.94  0.00  0.00  0.00  0.04  0.00
  YS02001610YS02001613    1.00   0.06  0.00  0.00  0.94  0.00  0.00  0.00  0.03  0.00
  YS02001613YS02001616    1.00   0.06  0.00  0.00  0.94  0.00  0.00  0.00  0.01  0.00
  YS02001616YS02001619    1.00   0.05  0.00  0.00  0.95  0.00  0.00  0.00  0.00  0.00
  YS02001619YS02001622    1.00   0.05  0.00  0.00  0.95  0.00  0.00  0.00  0.03  0.00
  YS02001622YS02001625    1.00   0.06  0.00  0.00  0.94  0.00  0.00  0.00  0.10  0.00
  YS02001625YS02001629    1.00   0.06  0.04  0.00  0.54  0.00  0.37  0.00  0.00  0.00
  YS02001629YS02163301    1.00   0.07  0.01  0.00  0.92  0.00  0.00  0.00  0.00  0.00
  YS02001633YS02163601    1.00   0.00  0.01  0.00  0.99  0.00  0.00  0.00  0.22  0.00
  YS02001641YS02001644    1.00   0.00  0.01  0.00  0.99  0.00  0.00  0.00  0.00  0.00
  YS02001644YS02001647    1.00   0.00  0.10  0.00  0.90  0.00  0.00  0.00  0.00  0.00
  YS02001647YS02001649    1.00   0.00  0.10  0.00  0.83  0.07  0.00  0.00  0.05  0.00
  YS02001649YS02001757    1.00   0.00  0.00  0.00  0.90  0.10  0.00  0.00  0.29  0.00
  YS02001652YS02001649    1.00   0.00  0.00  0.00  0.97  0.03  0.00  0.00  0.29  0.00
  YS02001655YS02001652    1.00   0.00  0.00  0.00  0.79  0.01  0.00  0.19  0.11  0.00
  YS02001658YS02001655    1.00   0.00  0.07  0.00  0.76  0.18  0.00  0.00  0.34  0.00
  YS02001661YS02001658    1.00   0.06  0.00  0.00  0.75  0.19  0.00  0.00  0.44  0.00
  YS02001664YS02001661    1.00   0.05  0.00  0.00  0.85  0.09  0.00  0.00  0.82  0.00
  YS02001745YS02001748    1.00   0.00  0.00  0.00  0.43  0.00  0.00  0.57  0.19  0.00
  YS02001748YS02001751    1.00   0.00  0.00  0.00  0.83  0.17  0.00  0.00  0.41  0.00
  YS02001751YS02001754    1.00   0.00  0.00  0.00  0.75  0.01  0.00  0.24  0.10  0.00
  YS02001754YS02001757    1.00   0.00  0.00  0.00  1.00  0.00  0.00  0.00  0.38  0.00
  YS02001757CaochengTiaoxuchi    1.00   0.00  0.00  0.00  1.00  0.00  0.00  0.00  0.17  0.00
  YS02001759YS02001757    1.00   0.00  0.00  0.00  1.00  0.00  0.00  0.00  0.28  0.00
  YS02001762YS02001759    1.00   0.00  0.00  0.00  1.00  0.00  0.00  0.00  0.09  0.00
  YS02001765YS02001762    1.00   0.00  0.00  0.00  1.00  0.00  0.00  0.00  0.26  0.00
  YS02001767YS02001765    1.00   0.00  0.00  0.00  1.00  0.00  0.00  0.00  0.00  0.00
  YS02001770YS02001767    1.00   0.00  0.00  0.00  1.00  0.00  0.00  0.00  0.00  0.00
  YS02001774YS02001770    1.00   0.00  0.06  0.00  0.94  0.00  0.00  0.00  0.07  0.00
  YS02001779YS02001774    1.00   0.00  0.00  0.00  1.00  0.00  0.00  0.00  0.33  0.00
  YS02001783YS02001784    1.00   0.00  0.10  0.00  0.90  0.00  0.00  0.00  0.41  0.00
  YS02001784YS02001785    1.00   0.00  0.00  0.00  1.00  0.00  0.00  0.00  0.27  0.00
  YS02001786YS02001788    1.00   0.00  0.00  0.00  0.64  0.36  0.00  0.00  0.00  0.00
  YS02001788YS02001790    1.00   0.00  0.00  0.00  0.15  0.85  0.00  0.00  0.79  0.00
  YS02001790YS02001791    1.00   0.00  0.00  0.00  0.02  0.98  0.00  0.00  0.18  0.00
  YS02001791YS02001793    1.00   0.00  0.00  0.00  0.01  0.99  0.00  0.00  0.01  0.00
  YS02001793JiankangQianchi    1.00   0.00  0.00  0.00  0.12  0.88  0.00  0.00  0.10  0.00
  YS02001882YS02001884    1.00   0.07  0.01  0.00  0.92  0.00  0.00  0.00  0.00  0.00
  YS02001884YS02001887    1.00   0.03  0.02  0.00  0.95  0.00  0.00  0.00  0.00  0.00
  YS02001887YS02001890    1.00   0.00  0.00  0.00  0.98  0.00  0.02  0.00  0.00  0.00
  YS02001890YS02001895    1.00   0.00  0.08  0.00  0.91  0.00  0.00  0.00  0.00  0.00
  YS02001895YS02001898    1.00   0.09  0.00  0.00  0.89  0.00  0.02  0.00  0.00  0.00
  YS02001898YS02001901    1.00   0.08  0.01  0.00  0.91  0.00  0.00  0.00  0.02  0.00
  YS02001901YS02001904    1.00   0.08  0.00  0.00  0.92  0.00  0.00  0.00  0.00  0.00
  YS02001904YS02001907    1.00   0.00  0.08  0.00  0.92  0.00  0.00  0.00  0.00  0.00
  YS02001907YS02006553    1.00   0.00  0.01  0.00  0.98  0.00  0.00  0.00  0.00  0.00
  YS02001910YS02001907    1.00   0.00  0.00  0.00  0.98  0.00  0.00  0.02  0.17  0.00
  YS02001915YS02001910    1.00   0.00  0.00  0.00  0.99  0.01  0.00  0.00  0.26  0.00
  YS02001918YS02001915    1.00   0.00  0.01  0.00  0.99  0.01  0.00  0.00  0.70  0.00
  YS02001920YS02001918    1.00   0.00  0.01  0.00  0.99  0.00  0.00  0.00  0.00  0.00
  YS02001923YS02001920    1.00   0.00  0.00  0.00  1.00  0.00  0.00  0.00  0.93  0.00
  YS02001926YS02001923    1.00   0.00  0.04  0.00  0.07  0.00  0.90  0.00  0.00  0.00
  YS02001929YS02001926    1.00   0.00  0.05  0.00  0.94  0.00  0.00  0.00  0.79  0.00
  YS02006553YS02006556    1.00   0.01  0.00  0.00  0.99  0.00  0.00  0.00  0.04  0.00
  YS02006556YS02006558    1.00   0.00  0.00  0.00  1.00  0.00  0.00  0.00  0.00  0.00
  YS02006558YS02006561    1.00   0.10  0.00  0.00  0.06  0.84  0.00  0.00  0.24  0.00
  YS02006561YS02001783    1.00   0.10  0.00  0.00  0.12  0.78  0.00  0.00  0.59  0.00
  YS02163301YS02001633    1.00   0.00  0.07  0.00  0.93  0.00  0.00  0.00  0.00  0.00
  YS02163601YS02164001    1.00   0.00  0.04  0.00  0.96  0.00  0.00  0.00  0.00  0.00
  YS02164001YS02001641    1.00   0.01  0.03  0.00  0.96  0.00  0.00  0.00  0.08  0.00
  YSB1154YSB6556          1.00   0.05  0.00  0.00  0.95  0.00  0.00  0.00  0.03  0.00
  YSB1171HS02004479       1.00   0.02  0.00  0.00  0.97  0.00  0.00  0.00  0.15  0.00
  YSB1174YSB1171          1.00   0.03  0.02  0.00  0.96  0.00  0.00  0.00  0.00  0.00
  YSB6556YSB1171          1.00   0.02  0.03  0.00  0.95  0.00  0.00  0.00  0.00  0.00
  
  
  *************************
  Conduit Surcharge Summary
  *************************
  
  ----------------------------------------------------------------------------
                                                           Hours        Hours 
                         --------- Hours Full --------   Above Full   Capacity
  Conduit                Both Ends  Upstream  Dnstream   Normal Flow   Limited
  ----------------------------------------------------------------------------
  HS02004478WS02006287        0.27      0.27      0.41      0.01         0.01
  HS02004479HS02004480        0.41      0.41      0.43      0.01         0.01
  HS02004480HS02004478        0.36      0.40      0.36      1.25         0.36
  HS02004770HS02004777        0.32      0.33      0.33      0.10         0.06
  HS02004777HS02004785        0.29      0.29      0.33      0.01         0.01
  HS02004785HS02004788        0.28      0.29      0.28      0.98         0.27
  HS02004788HS02004792        0.28      0.28      0.37      0.01         0.01
  HS02004792HS02004799        0.37      0.37      0.48      0.01         0.01
  HS02004799HS02004480        0.40      0.40      0.48      0.54         0.01
  HS02004802HS02004478        0.37      0.37      0.42      0.01         0.01
  HS02004807HS02004802        0.40      0.40      0.41      0.06         0.07
  HS02004817HS02004807        0.40      0.40      0.82      0.01         0.01
  HS02004817HS02004824        0.29      0.29      0.82      0.01         0.01
  HS02004824HS02004830        0.26      0.26      0.29      0.01         0.01
  HS02004830HS02004837        0.23      0.23      0.26      0.01         0.01
  HS02004837HS02004842        0.23      0.23      0.34      0.01         0.01
  HS02004842HS02004848        0.19      0.19      0.34      0.01         0.01
  HS02004848HS02004852        0.19      0.19      0.21      0.02         0.01
  HS02004852HS02004856        0.21      0.21      0.23      0.02         0.01
  HS02004856HS02004862        0.21      0.21      0.24      0.01         0.01
  HS02004862HS02004870        0.24      0.24      0.25      0.01         0.01
  HS02004870HS02004876        0.25      0.25      0.31      0.01         0.01
  HS02004876HS02004881        0.30      0.31      0.30      1.00         0.30
  HS02004881HS02006253        0.30      0.30      1.84      0.01         0.01
  HS02004901HS02004770        0.33      0.33      0.33      0.01         0.01
  WS02003072WS02003073        0.01      0.01      0.01      3.90         0.01
  WS02004401WS02004402        1.13      1.13      1.15      1.00         0.96
  WS02004402WS02004403        1.15      1.15      1.16      1.13         1.11
  WS02004403WS02004404        1.16      1.16      1.42      0.01         0.01
  WS02004404WS02004405        1.39      1.42      1.39      4.15         1.39
  WS02004405WS02004406        1.37      1.39      1.37      1.70         1.37
  WS02004406WS02004407        0.01      0.01      1.37      0.01         0.01
  WS02004407WS02004409        0.01      0.01      0.67      0.01         0.01
  WS02004409WS02004410        0.63      0.67      0.63      1.08         0.63
  WS02004410WS02004411        0.56      0.63      0.56      1.09         0.56
  WS02004411WS02004412        0.50      0.56      0.50      1.12         0.50
  WS02004412WS02004413        0.50      0.50      0.92      0.01         0.01
  WS02004413WS02003067        0.01      0.01      0.92      0.01         0.01
  WS02006109WS02006110        1.61      1.61      4.01      1.61         0.01
  WS02006110WS02006113        0.88      0.88      4.00      0.24         0.01
  WS02006111WS02006112        0.85      0.85      4.02      0.01         0.01
  WS02006112WS02006115        1.08      1.08      1.81      0.01         0.01
  WS02006113WS02006111        0.87      0.88      0.87      1.01         0.87
  WS02006115WS02006116        1.08      1.08      1.09      1.08         1.07
  WS02006116WS02004401        1.12      1.12      1.13      1.11         1.09
  WS02006228WS02006109        4.00      4.01      4.00      4.12         4.00
  WS02006229WS02006228        4.00      4.00      4.00      4.07         4.00
  WS02006230WS02006229        4.03      4.03      4.03      3.94         3.26
  WS02006231WS02006230        1.43      1.43      1.68      3.87         0.67
  WS02006232WS02006231        1.64      1.64      3.93      0.04         0.10
  WS02006234WS02006232        3.93      3.93      3.93      0.01         0.01
  WS02006235WS02006234        3.43      3.43      3.92      3.86         0.66
  WS02006238WS02006235        3.93      3.93      3.93      0.01         0.22
  WS02006239WS02006238        3.93      3.93      3.93      3.25         2.74
  WS02006240WS02006239        3.93      3.93      3.93      3.25         2.73
  WS02006242WS02006240        3.93      3.93      3.93      3.45         0.54
  WS02006243WS02006242        3.93      3.93      3.93      0.01         0.01
  WS02006245WS02006243        3.92      3.92      3.92      2.76         2.72
  WS02006247WS02006245        3.92      3.93      3.92      3.82         3.13
  WS02006248WS02006247        3.92      3.92      3.92      0.02         0.01
  WS02006249WS02006248        3.92      3.92      3.93      3.09         0.01
  WS02006251WS02006249        3.93      3.95      3.93      3.97         3.93
  WS02006252WS02006251        3.99      3.99      3.99      3.82         0.01
  WS02006253WS02006251        3.95      3.95      3.96      0.52         0.01
  WS02006256WS02006235        4.04      4.04      4.61      0.30         0.01
  WS02006280WS02006229        0.50      0.50      0.59      0.01         0.01
  WS02006284WS02006280        0.43      0.43      0.49      0.01         0.01
  WS02006287WS02006284        0.35      0.35      0.44      0.12         0.12
  YS02001580YS02001583        0.31      0.31      0.35      0.01         0.01
  YS02001583YS02001586        0.32      0.32      0.46      0.01         0.01
  YS02001586YS02001590        0.47      0.47      0.53      0.01         0.01
  YS02001590YS02001593        0.54      0.54      0.55      0.52         0.01
  YS02001593YS02001596        0.55      0.55      0.65      0.01         0.01
  YS02001596YS02001600        0.70      0.70      0.85      0.01         0.01
  YS02001600YS02001601        0.96      0.96      1.75      0.01         0.01
  YS02001601YS02001602        1.59      1.59      1.82      0.73         0.01
  YS02001602YS02001605        1.55      1.55      1.59      1.86         0.02
  YS02001605YS02001607        1.52      1.55      1.67      0.93         0.82
  YS02001607YS02001610        0.60      0.60      0.64      0.01         0.01
  YS02001610YS02001613        0.60      0.60      0.64      0.01         0.01
  YS02001613YS02001616        0.54      0.54      0.60      0.01         0.01
  YS02001616YS02001619        0.52      0.52      0.54      0.01         0.01
  YS02001619YS02001622        0.52      0.52      0.54      0.47         0.38
  YS02001622YS02001625        0.54      0.54      1.08      0.01         0.01
  YS02001625YS02001629        0.49      0.49      1.08      0.01         0.01
  YS02001629YS02163301        1.26      1.26      1.35      0.05         0.08
  YS02001633YS02163601        1.48      1.48      1.70      0.18         0.18
  YS02001641YS02001644        1.55      1.56      1.56      0.99         0.75
  YS02001644YS02001647        0.95      0.95      1.56      0.01         0.01
  YS02001647YS02001649        0.95      0.95      1.63      0.01         0.01
  YS02001649YS02001757        1.63      1.63      1.99      0.05         0.03
  YS02001652YS02001649        0.98      0.98      1.63      0.01         0.01
  YS02001655YS02001652        0.26      0.26      0.83      0.01         0.01
  YS02001658YS02001655        0.07      0.07      0.26      0.01         0.01
  YS02001661YS02001658        0.01      0.01      0.07      0.01         0.01
  YS02001745YS02001748        0.01      0.01      0.01      0.01         0.01
  YS02001748YS02001751        0.05      0.05      0.17      0.01         0.01
  YS02001751YS02001754        0.17      0.17      0.57      0.01         0.01
  YS02001754YS02001757        0.94      0.94      1.99      0.01         0.01
  YS02001757CaochengTiaoxuchi        1.99      1.99      3.72      0.17         0.17
  YS02001759YS02001757        1.69      1.69      1.99      0.01         0.01
  YS02001762YS02001759        1.59      1.59      1.69      0.01         0.02
  YS02001765YS02001762        1.45      1.45      1.59      0.01         0.01
  YS02001767YS02001765        1.33      1.34      1.45      0.01         0.02
  YS02001770YS02001767        1.31      1.31      1.34      0.31         0.35
  YS02001774YS02001770        1.22      1.22      1.53      0.01         0.01
  YS02001779YS02001774        0.42      0.42      1.53      0.01         0.01
  YS02001783YS02001784        0.31      0.33      0.31      0.46         0.31
  YS02001784YS02001785        0.22      0.31      0.22      0.64         0.22
  YS02001786YS02001788        0.02      0.22      0.02      0.55         0.02
  YS02001788YS02001790        0.02      0.02      0.03      0.01         0.01
  YS02001790YS02001791        0.03      0.03      0.03      0.30         0.02
  YS02001791YS02001793        0.03      0.03      0.05      0.01         0.01
  YS02001793JiankangQianchi        0.04      0.04      0.35      0.01         0.01
  YS02001882YS02001884        0.29      0.29      0.30      0.01         0.01
  YS02001884YS02001887        0.32      0.32      0.33      0.01         0.01
  YS02001887YS02001890        0.34      0.34      0.35      0.01         0.01
  YS02001890YS02001895        0.28      0.28      0.36      0.01         0.01
  YS02001895YS02001898        0.27      0.27      0.28      0.01         0.01
  YS02001898YS02001901        0.28      0.28      0.32      0.01         0.01
  YS02001901YS02001904        0.31      0.31      0.32      0.01         0.01
  YS02001904YS02001907        0.31      0.31      0.54      0.01         0.01
  YS02001907YS02006553        0.64      0.64      0.69      0.01         0.01
  YS02001910YS02001907        0.36      0.36      0.52      0.01         0.01
  YS02001915YS02001910        0.28      0.28      0.36      0.01         0.01
  YS02001918YS02001915        0.20      0.20      0.28      0.01         0.01
  YS02001920YS02001918        0.20      0.20      0.22      0.01         0.01
  YS02001923YS02001920        0.16      0.16      0.22      0.01         0.01
  YS02001926YS02001923        0.01      0.01      0.01      0.01         0.01
  YS02001929YS02001926        0.01      0.01      0.01      0.01         0.01
  YS02006553YS02006556        0.44      0.44      0.54      0.01         0.01
  YS02006556YS02006558        0.49      0.49      0.55      0.01         0.01
  YS02006558YS02006561        0.24      0.43      0.24      0.60         0.24
  YS02006561YS02001783        0.17      0.17      0.33      0.01         0.01
  YS02163301YS02001633        1.35      1.35      1.54      0.01         0.01
  YS02163601YS02164001        1.50      1.50      1.70      0.07         0.01
  YS02164001YS02001641        1.50      1.50      1.56      0.46         0.40
  YSB1154YSB6556              0.46      0.46      0.57      0.01         0.01
  YSB1171HS02004479           0.38      0.38      0.57      0.01         0.01
  YSB1174YSB1171              0.51      0.51      0.74      0.01         0.01
  YSB6556YSB1171              0.46      0.46      0.87      0.01         0.01
  
  
  ***************
  Pumping Summary
  ***************
  
  ---------------------------------------------------------------------------------------------------------
                                                  Min       Avg       Max     Total     Power    % Time Off
                        Percent   Number of      Flow      Flow      Flow    Volume     Usage    Pump Curve
  Pump                 Utilized   Start-Ups       LPS       LPS       LPS  10^6 ltr     Kw-hr    Low   High
  ---------------------------------------------------------------------------------------------------------
  CC-R1                    2.78           1      0.00    683.00    683.00     0.410      7.97    0.0    0.0
  CC-R2                    0.00           0      0.00      0.00      0.00     0.000      0.00    0.0    0.0
  CC-S1                   66.52           1      0.00    200.00    200.00     2.874     14.26    0.0   22.1
  CC-S2                   66.52           1      0.00    200.00    200.00     2.874     14.26    0.0   22.1
  JK-R1                   86.09           4      0.00    170.90   1000.00     2.003      7.64    0.0    0.0
  JK-R2                   27.84           3      0.00    332.00   1000.00     0.975      4.84    0.0    0.0
  JK-S                    33.42           5      0.00    156.14    300.00     0.656     12.61    0.0    0.0
  XR-1                    97.20           1      0.00     95.00     95.00     1.995      8.82    0.0    0.0
  XR-2                    91.96           1      0.00     95.00     95.00     1.887      7.99    0.0    0.0
  XR-3                     0.00           0      0.00      0.00      0.00     0.000      0.00    0.0    0.0
  XR-4                     0.00           0      0.00      0.00      0.00     0.000      0.00    0.0    0.0
  

  Analysis begun on:  Sat Aug 27 11:17:39 2022
  Analysis ended on:  Sat Aug 27 11:17:43 2022
  Total elapsed time: 00:00:04