
  EPA STORM WATER MANAGEMENT MODEL - VERSION 5.1 (Build 5.3.0.dev0)
  --------------------------------------------------------------

  WARNING 04: minimum elevation drop used for Conduit WS02004404WS02004405
  WARNING 03: negative offset ignored for Link YS02001904YS02001907
  
  *********************************************************
  NOTE: The summary statistics displayed in this report are
  based on results found at every computational time step,  
  not just on results from each reporting time step.
  *********************************************************
  
  ****************
  Analysis Options
  ****************
  Flow Units ............... LPS
  Process Models:
    Rainfall/Runoff ........ YES
    RDII ................... NO
    Snowmelt ............... NO
    Groundwater ............ NO
    Flow Routing ........... YES
    Ponding Allowed ........ NO
    Water Quality .......... NO
  Infiltration Method ...... HORTON
  Flow Routing Method ...... DYNWAVE
  Surcharge Method ......... EXTRAN
  Starting Date ............ 01/01/2000 00:00:00
  Ending Date .............. 01/01/2000 06:00:00
  Antecedent Dry Days ...... 8.0
  Report Time Step ......... 00:01:00
  Wet Time Step ............ 00:01:00
  Dry Time Step ............ 00:01:00
  Routing Time Step ........ 30.00 sec
  Variable Time Step ....... YES
  Maximum Trials ........... 8
  Number of Threads ........ 4
  Head Tolerance ........... 0.001500 m
  
  
  **************************        Volume         Depth
  Runoff Quantity Continuity     hectare-m            mm
  **************************     ---------       -------
  Total Precipitation ......         4.402        72.663
  Evaporation Loss .........         0.000         0.000
  Infiltration Loss ........         0.242         3.999
  Surface Runoff ...........         4.095        67.607
  Final Storage ............         0.065         1.073
  Continuity Error (%) .....        -0.021
  
  
  **************************        Volume        Volume
  Flow Routing Continuity        hectare-m      10^6 ltr
  **************************     ---------     ---------
  Dry Weather Inflow .......         0.472         4.722
  Wet Weather Inflow .......         4.096        40.958
  Groundwater Inflow .......         0.000         0.000
  RDII Inflow ..............         0.000         0.000
  External Inflow ..........         0.078         0.784
  External Outflow .........         3.149        31.487
  Flooding Loss ............         1.894        18.936
  Evaporation Loss .........         0.000         0.000
  Exfiltration Loss ........         0.000         0.000
  Initial Stored Volume ....         0.303         3.031
  Final Stored Volume ......         0.171         1.709
  Continuity Error (%) .....        -5.327
  
  
  *************************
  Highest Continuity Errors
  *************************
  Node JK-storage (-51.80%)
  Node YS02001583 (-11.36%)
  Node YS02001884 (5.00%)
  Node HS02004842 (1.47%)
  
  
  ***************************
  Time-Step Critical Elements
  ***************************
  Link WS02006252WS02006251 (53.94%)
  Link YS02001793JiankangQianchi (11.16%)
  Link WS02006238WS02006235 (9.78%)
  Link WS02006280WS02006229 (7.53%)
  Link WS02004404WS02004405 (2.28%)
  
  
  ********************************
  Highest Flow Instability Indexes
  ********************************
  Link WS02006113WS02006111 (39)
  Link WS02006111WS02006112 (30)
  Link WS02006238WS02006235 (22)
  Link WS02004404WS02004405 (22)
  Link WS02006229WS02006228 (19)
  
  
  *************************
  Routing Time Step Summary
  *************************
  Minimum Time Step           :     0.50 sec
  Average Time Step           :     1.26 sec
  Maximum Time Step           :     4.28 sec
  Percent in Steady State     :    -0.00
  Average Iterations per Step :     3.17
  Percent Not Converging      :     9.97
  
  
  ***************************
  Subcatchment Runoff Summary
  ***************************
  
  ------------------------------------------------------------------------------------------------------------------------------
                            Total      Total      Total      Total     Imperv       Perv      Total       Total     Peak  Runoff
                           Precip      Runon       Evap      Infil     Runoff     Runoff     Runoff      Runoff   Runoff   Coeff
  Subcatchment                 mm         mm         mm         mm         mm         mm         mm    10^6 ltr      LPS
  ------------------------------------------------------------------------------------------------------------------------------
  sub0                      72.66       0.00       0.00       1.02      66.32       4.07      70.39        0.06    30.62   0.969
  sub1                      72.66       0.00       0.00       1.74      63.37       6.26      69.63        0.46   236.46   0.958
  sub10                     72.66       0.00       0.00       1.23      65.52       4.59      70.11        0.77   398.87   0.965
  sub11                     72.66       0.00       0.00       1.21      65.55       4.61      70.16        0.82   429.70   0.966
  sub12                     72.66       0.00       0.00       1.97      62.03       7.48      69.51        0.61   327.86   0.957
  sub14                     72.66       0.00       0.00       1.38      64.83       5.16      69.99        0.67   348.25   0.963
  sub15                     72.66       0.00       0.00       5.33      49.86      16.48      66.34        1.14   550.28   0.913
  sub16                     72.66       0.00       0.00       5.53      47.76      18.45      66.21        0.69   355.52   0.911
  sub17                     72.66       0.00       0.00       5.39      48.47      17.86      66.33        0.57   290.39   0.913
  sub2                      72.66       0.00       0.00       7.55      44.82      19.34      64.16        0.60   247.46   0.883
  sub22                     72.66       0.00       0.00       8.04      40.62      23.21      63.83        4.03  1816.18   0.878
  sub23                     72.66       0.00       0.00       6.58      44.90      20.31      65.21        3.11  1494.93   0.897
  sub3                      72.66       0.00       0.00       8.15      44.74      18.69      63.44        1.43   536.72   0.873
  sub4                      72.66       0.00       0.00       1.92      63.06       6.08      69.13        1.44   596.12   0.951
  sub5                      72.66       0.00       0.00       1.07      66.21       4.02      70.23        0.80   406.40   0.967
  sub60                     72.66       0.00       0.00       1.85      62.71       6.87      69.58        0.91   485.27   0.958
  sub61                     72.66       0.00       0.00       2.68      59.16       9.68      68.84        1.26   671.95   0.947
  sub62                     72.66       0.00       0.00       1.23      65.51       4.58      70.09        1.92   983.83   0.965
  sub63                     72.66       0.00       0.00       4.91      50.60      16.17      66.77        1.52   769.65   0.919
  sub64                     72.66       0.00       0.00       2.48      60.49       8.42      68.91        1.66   817.19   0.948
  sub65                     72.66       0.00       0.00       2.15      61.88       7.30      69.17        1.90   920.48   0.952
  sub66                     72.66       0.00       0.00       6.00      50.40      15.07      65.47        3.05  1208.67   0.901
  sub67                     72.66       0.00       0.00       1.19      65.59       4.63      70.22        1.31   699.26   0.966
  sub68                     72.66       0.00       0.00       2.22      61.26       7.96      69.22        1.91   994.32   0.953
  sub69                     72.66       0.00       0.00       1.97      61.57       8.93      70.50        2.61  1230.90   0.970
  sub7                      72.66       0.00       0.00       1.36      64.85       5.18      70.04        0.24   125.40   0.964
  sub70                     72.66       0.00       0.00       6.46      47.66      18.24      65.90        1.90   680.46   0.907
  sub71                     72.66       0.00       0.00       1.26      65.43       4.55      69.98        1.83   890.65   0.963
  sub72                     72.66       0.00       0.00       1.12      66.03       3.97      69.99        0.96   435.93   0.963
  sub8                      72.66       0.00       0.00       1.37      64.83       5.17      70.00        0.45   235.06   0.963
  sub9                      72.66       0.00       0.00       1.38      64.83       5.17      69.99        0.34   176.41   0.963
  
  
  ******************
  Node Depth Summary
  ******************
  
  ---------------------------------------------------------------------------------
                                 Average  Maximum  Maximum  Time of Max    Reported
                                   Depth    Depth      HGL   Occurrence   Max Depth
  Node                 Type       Meters   Meters   Meters  days hr:min      Meters
  ---------------------------------------------------------------------------------
  HS02004478           JUNCTION     0.26     1.59    10.81     0  01:44        1.58
  HS02004479           JUNCTION     0.33     1.72    10.92     0  01:36        1.66
  HS02004480           JUNCTION     0.30     1.68    10.92     0  01:37        1.63
  HS02004770           JUNCTION     0.30     1.42    11.25     0  01:36        1.42
  HS02004777           JUNCTION     0.32     1.48    11.28     0  01:36        1.45
  HS02004785           JUNCTION     0.22     1.49    11.39     0  01:36        1.34
  HS02004788           JUNCTION     0.19     1.42    11.32     0  01:36        1.33
  HS02004792           JUNCTION     0.25     1.60    11.12     0  01:36        1.60
  HS02004799           JUNCTION     0.36     1.76    10.97     0  01:36        1.76
  HS02004802           JUNCTION     0.35     1.80    10.93     0  01:46        1.79
  HS02004807           JUNCTION     0.33     1.92    11.09     0  01:37        1.92
  HS02004817           JUNCTION     0.62     2.44    11.29     0  01:37        2.36
  HS02004824           JUNCTION     0.21     2.01    11.41     0  01:37        1.92
  HS02004830           JUNCTION     0.21     2.03    11.50     0  01:37        1.87
  HS02004837           JUNCTION     0.18     2.04    11.62     0  01:37        1.79
  HS02004842           JUNCTION     0.46     2.22    11.49     0  01:38        2.10
  HS02004848           JUNCTION     0.16     2.00    11.60     0  01:38        1.77
  HS02004852           JUNCTION     0.17     2.03    11.54     0  01:38        1.81
  HS02004856           JUNCTION     0.22     2.07    11.50     0  01:38        1.88
  HS02004862           JUNCTION     0.18     2.00    11.38     0  01:38        1.86
  HS02004870           JUNCTION     0.17     2.10    11.39     0  01:38        1.84
  HS02004876           JUNCTION     0.22     2.26    11.29     0  01:38        1.93
  HS02004881           JUNCTION     0.15     2.15    11.18     0  01:38        1.69
  HS02004901           JUNCTION     0.30     1.42    11.24     0  01:36        1.42
  WS02001211           JUNCTION     0.63     0.81     5.65     0  01:47        0.81
  WS02001212           JUNCTION     0.37     0.58     5.64     0  01:43        0.57
  WS02001213           JUNCTION     0.60     0.88     5.64     0  01:42        0.87
  WS02003059           JUNCTION     0.67     0.94     5.63     0  01:45        0.94
  WS02003060           JUNCTION     0.41     0.69     5.62     0  01:45        0.69
  WS02003066           JUNCTION     0.26     0.46     6.01     0  01:45        0.46
  WS02003067           JUNCTION     0.60     0.89     6.21     0  01:44        0.89
  WS02003069           JUNCTION     0.46     0.78     5.36     0  01:46        0.78
  WS02003072           JUNCTION     0.52     0.81     5.19     0  01:47        0.81
  WS02003073           JUNCTION     0.31     0.52     4.58     0  01:47        0.52
  WS02004138           JUNCTION     0.13     0.14     7.39     0  00:32        0.14
  WS02004139           JUNCTION     0.56     0.74     5.65     0  01:48        0.74
  WS02004401           JUNCTION     0.84     2.10     8.10     0  01:29        1.86
  WS02004402           JUNCTION     0.86     2.09     8.05     0  01:29        1.79
  WS02004403           JUNCTION     0.86     1.94     7.87     0  01:29        1.71
  WS02004404           JUNCTION     0.91     1.80     7.65     0  01:29        1.72
  WS02004405           JUNCTION     0.90     1.82     7.67     0  01:29        1.68
  WS02004406           JUNCTION     0.89     1.73     7.56     0  01:29        1.56
  WS02004407           JUNCTION     0.31     0.93     7.24     0  01:45        0.93
  WS02004409           JUNCTION     0.62     1.39     7.16     0  01:45        1.38
  WS02004410           JUNCTION     0.62     1.29     7.01     0  01:44        1.28
  WS02004411           JUNCTION     0.62     1.20     6.88     0  01:45        1.20
  WS02004412           JUNCTION     0.61     1.10     6.74     0  01:45        1.10
  WS02004413           JUNCTION     0.74     1.14     6.61     0  01:45        1.14
  WS02006109           JUNCTION     1.09     2.64     9.26     0  01:36        2.64
  WS02006110           JUNCTION     1.02     2.39     8.98     0  01:44        2.38
  WS02006111           JUNCTION     0.48     1.74     8.44     0  01:45        1.72
  WS02006112           JUNCTION     1.07     2.42     8.31     0  01:29        2.36
  WS02006113           JUNCTION     0.58     1.82     8.71     0  01:45        1.82
  WS02006115           JUNCTION     0.78     2.92     9.06     0  01:29        1.95
  WS02006116           JUNCTION     0.84     3.21     9.25     0  01:29        1.94
  WS02006228           JUNCTION     1.16     3.03     9.68     0  01:36        3.02
  WS02006229           JUNCTION     1.18     3.25     9.94     0  01:36        3.21
  WS02006230           JUNCTION     1.11     2.65     9.39     0  01:34        2.65
  WS02006231           JUNCTION     0.83     2.19     9.31     0  02:01        2.19
  WS02006232           JUNCTION     0.94     2.18     9.22     0  01:34        2.18
  WS02006234           JUNCTION     0.83     1.96     9.12     0  01:33        1.96
  WS02006235           JUNCTION     0.85     2.00     9.16     0  02:30        1.93
  WS02006238           JUNCTION     0.87     2.04     9.18     0  02:30        1.93
  WS02006239           JUNCTION     0.82     2.03     9.24     0  01:27        1.78
  WS02006240           JUNCTION     0.75     2.10     9.39     0  01:27        1.62
  WS02006242           JUNCTION     0.80     1.55     8.82     0  01:27        1.55
  WS02006243           JUNCTION     0.68     1.48     8.90     0  01:27        1.36
  WS02006245           JUNCTION     0.66     1.56     9.04     0  01:27        1.26
  WS02006247           JUNCTION     0.67     1.47     8.97     0  01:27        1.23
  WS02006248           JUNCTION     0.61     1.10     8.69     0  01:27        1.10
  WS02006249           JUNCTION     0.63     1.09     8.69     0  01:28        1.09
  WS02006251           JUNCTION     0.73     2.21     9.88     0  01:38        2.12
  WS02006252           JUNCTION     0.52     1.50     9.74     0  00:10        1.50
  WS02006253           JUNCTION     0.82     3.31    10.95     0  01:38        2.98
  WS02006256           JUNCTION     1.18     2.35     9.28     0  00:00        2.35
  WS02006280           JUNCTION     0.32     1.77    10.04     0  01:36        1.74
  WS02006284           JUNCTION     0.57     1.95    10.35     0  01:38        1.94
  WS02006287           JUNCTION     0.32     1.74    10.69     0  01:43        1.73
  WSF200               JUNCTION     0.26     0.52     5.76     0  01:46        0.52
  YS02001580           JUNCTION     0.11     1.05     9.59     0  01:36        0.77
  YS02001583           JUNCTION     0.14     1.14     9.64     0  01:36        0.82
  YS02001586           JUNCTION     0.22     1.13     9.30     0  01:35        1.13
  YS02001590           JUNCTION     0.32     1.39     9.26     0  01:36        1.37
  YS02001593           JUNCTION     0.25     1.34     9.21     0  01:36        1.28
  YS02001596           JUNCTION     0.35     1.69     9.11     0  01:36        1.65
  YS02001600           JUNCTION     0.42     1.87     9.00     0  01:36        1.86
  YS02001601           JUNCTION     0.61     2.06     8.90     0  01:35        2.06
  YS02001602           JUNCTION     0.52     1.87     8.77     0  01:36        1.87
  YS02001605           JUNCTION     0.49     1.78     8.68     0  01:36        1.77
  YS02001607           JUNCTION     0.47     1.65     8.49     0  02:10        1.64
  YS02001610           JUNCTION     0.51     1.68     8.48     0  01:36        1.68
  YS02001613           JUNCTION     0.47     1.68     8.52     0  01:36        1.65
  YS02001616           JUNCTION     0.41     1.61     8.52     0  01:36        1.59
  YS02001619           JUNCTION     0.39     1.61     8.54     0  01:36        1.57
  YS02001622           JUNCTION     0.38     1.62     8.52     0  01:36        1.56
  YS02001625           JUNCTION     0.62     1.78     8.38     0  01:36        1.78
  YS02001629           JUNCTION     0.52     1.85     8.40     0  01:36        1.85
  YS02001633           JUNCTION     0.60     2.04     8.49     0  01:38        2.00
  YS02001641           JUNCTION     0.58     1.97     8.40     0  01:38        1.93
  YS02001644           JUNCTION     0.57     1.92     8.35     0  01:38        1.92
  YS02001647           JUNCTION     0.38     1.81     8.42     0  01:39        1.73
  YS02001649           JUNCTION     0.47     2.05     8.44     0  01:39        1.93
  YS02001652           JUNCTION     0.35     2.16     8.76     0  01:39        1.77
  YS02001655           JUNCTION     0.25     2.20     9.05     0  01:38        1.55
  YS02001658           JUNCTION     0.16     2.30     9.44     0  01:39        1.30
  YS02001661           JUNCTION     0.16     1.79     9.19     0  01:40        1.07
  YS02001664           JUNCTION     0.06     0.68     8.60     0  01:40        0.48
  YS02001745           JUNCTION     0.07     0.96     8.47     0  01:40        0.96
  YS02001748           JUNCTION     0.15     2.27     9.35     0  01:39        1.34
  YS02001751           JUNCTION     0.21     2.12     9.00     0  01:39        1.48
  YS02001754           JUNCTION     0.32     2.20     8.81     0  01:39        1.68
  YS02001757           JUNCTION     0.51     2.21     8.47     0  01:39        1.96
  YS02001759           JUNCTION     0.45     2.15     8.51     0  01:39        1.95
  YS02001762           JUNCTION     0.44     2.15     8.55     0  01:39        1.93
  YS02001765           JUNCTION     0.41     2.10     8.55     0  01:39        1.90
  YS02001767           JUNCTION     0.41     2.03     8.52     0  01:39        1.88
  YS02001770           JUNCTION     0.41     1.95     8.44     0  01:38        1.91
  YS02001774           JUNCTION     0.47     2.01     8.43     0  01:39        1.97
  YS02001779           JUNCTION     0.30     1.68     8.37     0  01:38        1.68
  YS02001783           JUNCTION     0.26     1.93     8.07     0  01:37        1.22
  YS02001784           JUNCTION     0.27     1.53     7.60     0  01:37        1.13
  YS02001786           JUNCTION     0.23     1.49     7.52     0  02:15        1.04
  YS02001788           JUNCTION     0.16     1.35     7.33     0  02:15        0.97
  YS02001790           JUNCTION     0.19     1.61     7.25     0  02:15        1.19
  YS02001791           JUNCTION     0.13     1.72     7.19     0  02:14        1.23
  YS02001793           JUNCTION     0.09     1.92     6.75     0  02:14        1.79
  YS02001882           JUNCTION     0.33     1.83     8.55     0  01:36        1.63
  YS02001884           JUNCTION     0.41     1.92     8.53     0  01:37        1.73
  YS02001887           JUNCTION     0.49     1.92     8.45     0  01:37        1.81
  YS02001890           JUNCTION     0.51     1.81     8.32     0  01:37        1.81
  YS02001895           JUNCTION     0.30     1.75     8.50     0  01:37        1.65
  YS02001898           JUNCTION     0.30     1.77     8.51     0  01:36        1.77
  YS02001901           JUNCTION     0.41     1.87     8.48     0  01:37        1.78
  YS02001904           JUNCTION     0.39     1.65     8.28     0  01:37        1.63
  YS02001907           JUNCTION     0.69     1.96     8.25     0  01:37        1.96
  YS02001910           JUNCTION     0.50     2.05     8.56     0  01:37        1.86
  YS02001915           JUNCTION     0.33     1.99     8.71     0  01:37        1.74
  YS02001918           JUNCTION     0.19     1.81     8.88     0  01:37        1.43
  YS02001920           JUNCTION     0.27     2.09     9.10     0  01:38        1.53
  YS02001923           JUNCTION     0.15     2.03     9.29     0  01:38        1.31
  YS02001926           JUNCTION     0.18     1.90     9.35     0  01:38        1.17
  YS02001929           JUNCTION     0.10     1.78     9.47     0  01:38        0.98
  YS02006553           JUNCTION     0.69     2.10     8.38     0  01:37        1.97
  YS02006556           JUNCTION     0.67     2.23     8.54     0  01:37        1.94
  YS02006558           JUNCTION     0.71     2.32     8.59     0  01:37        1.99
  YS02006561           JUNCTION     0.16     1.79     8.45     0  01:37        0.89
  YS02163301           JUNCTION     0.54     1.93     8.45     0  01:38        1.91
  YS02163601           JUNCTION     0.63     2.06     8.46     0  01:38        2.01
  YS02164001           JUNCTION     0.56     1.98     8.44     0  01:38        1.93
  YSB1154              JUNCTION     0.46     1.98    11.04     0  01:36        1.91
  YSB1171              JUNCTION     0.60     1.95    10.85     0  01:36        1.95
  YSB1174              JUNCTION     0.42     1.81    10.92     0  01:36        1.79
  YSB6556              JUNCTION     0.36     1.80    10.97     0  01:36        1.73
  CC-1                 OUTFALL      0.00     0.00     0.00     0  00:00        0.00
  CC-2                 OUTFALL      0.00     0.00     0.00     0  00:00        0.00
  JK-1                 OUTFALL      0.00     0.00     0.00     0  00:00        0.00
  JK-2                 OUTFALL      0.00     0.00     0.00     0  00:00        0.00
  WSC                  OUTFALL      0.31     0.52     1.19     0  01:48        0.52
  CC-storage           STORAGE      0.74     1.83     7.33     0  02:33        1.83
  JK-storage           STORAGE      0.19     5.80     6.60     0  02:15        5.80
  XR-storage           STORAGE      7.68     8.66     6.66     0  06:00        8.66
  
  
  *******************
  Node Inflow Summary
  *******************
  
  -------------------------------------------------------------------------------------------------
                                  Maximum  Maximum                  Lateral       Total        Flow
                                  Lateral    Total  Time of Max      Inflow      Inflow     Balance
                                   Inflow   Inflow   Occurrence      Volume      Volume       Error
  Node                 Type           LPS      LPS  days hr:min    10^6 ltr    10^6 ltr     Percent
  -------------------------------------------------------------------------------------------------
  HS02004478           JUNCTION      0.00  2303.04     0  01:42           0        9.84      -0.007
  HS02004479           JUNCTION      0.00   533.42     0  01:37           0       0.962       0.082
  HS02004480           JUNCTION      0.00  2183.17     0  01:37           0        7.38       0.024
  HS02004770           JUNCTION   1494.93  1494.93     0  01:45        3.11        3.38       0.094
  HS02004777           JUNCTION      0.03   906.52     0  01:36    0.000648        2.16       0.247
  HS02004785           JUNCTION      0.15   899.46     0  01:36     0.00324        2.15       0.021
  HS02004788           JUNCTION    551.95  1150.27     0  01:36        1.18        3.33      -0.004
  HS02004792           JUNCTION   1816.46  2618.34     0  01:45        4.04        7.36       0.006
  HS02004799           JUNCTION    348.25  1714.04     0  01:37       0.666        6.65       0.045
  HS02004802           JUNCTION      0.00  1232.54     0  01:45           0         2.6       0.157
  HS02004807           JUNCTION    429.70  1416.65     0  01:45       0.815        2.66       0.158
  HS02004817           JUNCTION      0.60   988.00     0  01:45       0.013        1.91       0.857
  HS02004824           JUNCTION    596.17   986.87     0  01:45        1.44        2.15       0.033
  HS02004830           JUNCTION      0.15   751.89     0  01:36     0.00324       0.965       0.137
  HS02004837           JUNCTION    405.22  1009.51     0  01:36        0.91        1.38       0.046
  HS02004842           JUNCTION      0.00   977.02     0  01:37           0       0.893       1.492
  HS02004848           JUNCTION    536.72  1230.78     0  01:37        1.43        2.14       0.003
  HS02004852           JUNCTION      0.00  1192.31     0  01:37           0        1.98      -0.001
  HS02004856           JUNCTION    176.41  1324.58     0  01:37       0.337        2.32       0.065
  HS02004862           JUNCTION    247.66  1469.10     0  01:38       0.602        2.92       0.007
  HS02004870           JUNCTION    235.06  1619.93     0  01:38       0.447        3.36       0.005
  HS02004876           JUNCTION    236.46  1711.86     0  01:38       0.463        3.83       0.015
  HS02004881           JUNCTION    125.40  1815.55     0  01:38       0.236        4.06      -0.012
  HS02004901           JUNCTION    355.52   613.96     0  01:45       0.693        1.09       0.161
  WS02001211           JUNCTION      7.35   218.08     0  01:36       0.159        4.02       0.828
  WS02001212           JUNCTION      0.00   205.17     0  02:34           0        3.99       0.388
  WS02001213           JUNCTION      0.00   229.60     0  01:39           0        3.97       0.462
  WS02003059           JUNCTION      0.00   227.90     0  01:32           0        3.97       0.819
  WS02003060           JUNCTION     16.53  1515.31     0  01:45       0.357        14.9       0.104
  WS02003066           JUNCTION      0.00  1302.49     0  01:45           0        10.6       0.018
  WS02003067           JUNCTION      0.00  1302.17     0  01:45           0        10.6       0.045
  WS02003069           JUNCTION      0.32  1512.95     0  01:46     0.00691        14.9       0.111
  WS02003072           JUNCTION      0.00  1512.60     0  01:46           0        14.9       0.148
  WS02003073           JUNCTION      1.82  1514.13     0  01:47      0.0393        14.9       0.155
  WS02004138           JUNCTION      0.00   190.00     0  00:29           0        3.88       0.076
  WS02004139           JUNCTION      0.32   190.32     0  00:32     0.00693        3.89       0.689
  WS02004401           JUNCTION      0.00  1302.85     0  01:45           0        10.8       0.104
  WS02004402           JUNCTION      0.00  1303.11     0  01:44           0        10.8       0.104
  WS02004403           JUNCTION      0.00  1303.50     0  01:45           0        10.7       0.102
  WS02004404           JUNCTION      0.16  1303.39     0  01:44      0.0035        10.7       0.087
  WS02004405           JUNCTION      0.04  1303.56     0  01:45    0.000823        10.7       0.120
  WS02004406           JUNCTION      0.00  1303.22     0  01:44           0        10.7       0.208
  WS02004407           JUNCTION      0.00  1303.17     0  01:44           0        10.7       0.019
  WS02004409           JUNCTION      0.00  1302.41     0  01:45           0        10.7       0.038
  WS02004410           JUNCTION      0.00  1302.30     0  01:45           0        10.7       0.056
  WS02004411           JUNCTION      0.00  1302.26     0  01:45           0        10.7       0.068
  WS02004412           JUNCTION      0.00  1302.20     0  01:45           0        10.7       0.085
  WS02004413           JUNCTION      0.00  1302.14     0  01:45           0        10.7       0.146
  WS02006109           JUNCTION      1.23  1288.98     0  01:42      0.0266        10.6       0.061
  WS02006110           JUNCTION      0.00  1123.76     0  02:07           0        10.2       0.092
  WS02006111           JUNCTION      0.00  1123.76     0  02:07           0        10.2       0.004
  WS02006112           JUNCTION    290.39  1302.77     0  01:45       0.569        10.8       0.173
  WS02006113           JUNCTION      0.00  1123.72     0  02:07           0        10.2       0.025
  WS02006115           JUNCTION      0.00  1303.04     0  01:44           0        10.8       0.077
  WS02006116           JUNCTION      0.00  1303.00     0  01:44           0        10.8       0.005
  WS02006228           JUNCTION      0.00  1287.80     0  01:42           0        10.5       0.046
  WS02006229           JUNCTION      0.00  2303.72     0  01:42           0        13.4       0.071
  WS02006230           JUNCTION     10.28  1025.48     0  01:42       0.222        6.39       0.116
  WS02006231           JUNCTION      0.00   467.26     0  03:30           0        5.03      -0.053
  WS02006232           JUNCTION      0.00   466.20     0  03:30           0        5.04       0.137
  WS02006234           JUNCTION      0.00   462.60     0  03:30           0        5.03      -0.049
  WS02006235           JUNCTION      0.00   455.65     0  03:30           0        5.03       0.103
  WS02006238           JUNCTION      0.00   415.73     0  02:20           0        4.57      -0.097
  WS02006239           JUNCTION      0.00   414.86     0  01:37           0        4.55      -0.151
  WS02006240           JUNCTION      0.00   414.77     0  02:22           0        4.54       0.020
  WS02006242           JUNCTION      0.00   414.74     0  01:37           0        4.54       0.057
  WS02006243           JUNCTION      0.00   408.08     0  04:07           0        4.09      -0.234
  WS02006245           JUNCTION      0.00   408.10     0  04:06           0         4.1       0.185
  WS02006247           JUNCTION      0.00   408.12     0  04:06           0         4.1       0.046
  WS02006248           JUNCTION      0.00   408.41     0  04:02           0        4.42       0.007
  WS02006249           JUNCTION      0.00  1356.71     0  01:45           0        7.71       0.083
  WS02006251           JUNCTION      0.08  1605.02     0  01:38     0.00166        7.89      -0.007
  WS02006252           JUNCTION      0.00   489.00     0  01:50           0        4.12      -0.053
  WS02006253           JUNCTION     30.62  1604.01     0  01:45       0.057        4.16       0.011
  WS02006256           JUNCTION      0.00   300.00     0  00:00           0        1.15      -0.151
  WS02006280           JUNCTION      0.00  2303.17     0  01:42           0        9.83       0.017
  WS02006284           JUNCTION      0.10  2302.88     0  01:42     0.00207        9.83      -0.011
  WS02006287           JUNCTION      0.00  2302.96     0  01:42           0        9.83       0.008
  WSF200               JUNCTION      0.00  1302.37     0  01:45           0        10.6       0.010
  YS02001580           JUNCTION      0.00   164.08     0  01:36           0     0.00449      -2.418
  YS02001583           JUNCTION      0.00   265.29     0  01:36           0      0.0149     -10.203
  YS02001586           JUNCTION    680.46   680.49     0  01:45         1.9        1.92       0.084
  YS02001590           JUNCTION      0.00   317.93     0  02:02           0        1.51      -0.003
  YS02001593           JUNCTION      0.00   317.91     0  02:08           0        1.51      -0.009
  YS02001596           JUNCTION      0.00   317.95     0  02:08           0        1.51      -0.012
  YS02001600           JUNCTION      0.00   317.98     0  02:02           0        1.51      -0.002
  YS02001601           JUNCTION   1230.90  1548.40     0  01:45        2.61        4.12       0.021
  YS02001602           JUNCTION      0.00   567.89     0  01:36           0        2.52       0.025
  YS02001605           JUNCTION      0.00   567.78     0  01:36           0        2.39       0.029
  YS02001607           JUNCTION      0.00   567.66     0  01:36           0        2.39       0.103
  YS02001610           JUNCTION      0.00   637.25     0  01:45           0        2.58       0.099
  YS02001613           JUNCTION      0.00   561.56     0  01:36           0        2.04       0.103
  YS02001616           JUNCTION      0.00   575.71     0  01:36           0        2.04       0.031
  YS02001619           JUNCTION   1208.67  1208.67     0  01:45        3.05        4.89       0.003
  YS02001622           JUNCTION      0.00   937.23     0  01:36           0        4.68      -0.002
  YS02001625           JUNCTION      0.00  1290.27     0  01:45           0        4.86       0.281
  YS02001629           JUNCTION      0.00   918.24     0  01:36           0        3.88      -0.055
  YS02001633           JUNCTION    920.68  1435.51     0  01:37        1.91        5.58       0.068
  YS02001641           JUNCTION      0.00  1433.41     0  01:37           0        5.38       0.057
  YS02001644           JUNCTION    817.23  1934.57     0  01:37        1.66        7.03       0.050
  YS02001647           JUNCTION      0.00  1934.37     0  01:37           0        6.82       0.002
  YS02001649           JUNCTION      0.00  2221.66     0  01:38           0        8.34       0.005
  YS02001652           JUNCTION      0.00   868.08     0  01:41           0        1.52      -0.159
  YS02001655           JUNCTION      0.15   867.38     0  01:41     0.00332        1.52      -0.058
  YS02001658           JUNCTION      0.00   866.96     0  01:41           0        1.52      -0.057
  YS02001661           JUNCTION      0.00   819.56     0  01:40           0        1.52       0.015
  YS02001664           JUNCTION    769.65   769.65     0  01:45        1.52        1.52      -0.005
  YS02001745           JUNCTION    485.27   619.93     0  01:39       0.914       0.916       0.223
  YS02001748           JUNCTION      0.04   704.37     0  01:39    0.000972       0.918      -0.350
  YS02001751           JUNCTION      0.01   597.55     0  01:40    0.000238       0.927       0.093
  YS02001754           JUNCTION      0.26   598.16     0  01:40     0.00562       0.939      -0.172
  YS02001757           JUNCTION      0.00  3513.86     0  01:44           0        12.4       0.019
  YS02001759           JUNCTION    671.99  1412.99     0  01:43        1.26        3.13      -0.013
  YS02001762           JUNCTION      0.00   827.26     0  01:47           0        1.86      -0.001
  YS02001765           JUNCTION      0.00   826.74     0  01:47           0        1.86      -0.003
  YS02001767           JUNCTION      0.54   826.75     0  01:47      0.0116        1.86      -0.003
  YS02001770           JUNCTION    983.99   983.99     0  01:45        1.92        1.98      -0.020
  YS02001774           JUNCTION      0.00   514.17     0  01:38           0       0.157       0.550
  YS02001779           JUNCTION      0.01   517.37     0  01:38    0.000108       0.105      -0.675
  YS02001783           JUNCTION      0.00  1159.74     0  01:39           0        4.56       0.007
  YS02001784           JUNCTION      1.06  1161.11     0  01:40      0.0229        4.59       0.016
  YS02001786           JUNCTION      0.06  1160.83     0  01:40     0.00122        4.59       0.004
  YS02001788           JUNCTION      0.07  1167.60     0  01:37     0.00153        4.59       0.008
  YS02001790           JUNCTION      0.15  1172.22     0  01:38     0.00335        4.59      -0.013
  YS02001791           JUNCTION      0.00  1291.06     0  01:42           0        4.59      -0.010
  YS02001793           JUNCTION      0.00  1304.28     0  02:21           0        4.59      -0.008
  YS02001882           JUNCTION      0.00   120.28     0  01:36           0       0.014       4.574
  YS02001884           JUNCTION      0.00   162.08     0  01:36           0      0.0513       5.268
  YS02001887           JUNCTION    699.71   699.93     0  01:45        1.32        1.35       0.335
  YS02001890           JUNCTION      0.00   699.90     0  01:44           0        1.31       0.401
  YS02001895           JUNCTION      0.00   562.53     0  01:37           0        1.22       0.150
  YS02001898           JUNCTION      0.00   562.84     0  01:37           0        1.22      -0.037
  YS02001901           JUNCTION      0.00   569.10     0  01:37           0        1.23       0.276
  YS02001904           JUNCTION      0.00   570.83     0  01:37           0        1.23       0.227
  YS02001907           JUNCTION      0.00  1849.96     0  01:45           0        4.08       0.438
  YS02001910           JUNCTION      0.00  1333.33     0  01:45           0        2.85       0.258
  YS02001915           JUNCTION    890.67  1333.11     0  01:45        1.83        2.91       0.056
  YS02001918           JUNCTION      0.00   649.66     0  01:37           0        1.11       0.002
  YS02001920           JUNCTION      2.87   656.70     0  01:37       0.062        1.09       0.080
  YS02001923           JUNCTION      0.04   878.61     0  01:37    0.000814        1.01      -0.051
  YS02001926           JUNCTION      0.05  1113.68     0  01:38     0.00113       0.986      -0.124
  YS02001929           JUNCTION    435.93   901.53     0  01:38       0.962       0.969      -0.101
  YS02006553           JUNCTION      0.00   791.90     0  02:04           0        2.69       0.440
  YS02006556           JUNCTION      0.00   791.74     0  02:04           0         2.7       0.288
  YS02006558           JUNCTION    995.20  1192.66     0  01:37        1.92         4.6       0.080
  YS02006561           JUNCTION      0.00  1192.66     0  01:37           0        4.56      -0.006
  YS02163301           JUNCTION      0.00   902.61     0  01:37           0        3.87       0.041
  YS02163601           JUNCTION      0.11  1435.12     0  01:37     0.00238        5.38       0.094
  YS02164001           JUNCTION      0.00  1434.75     0  01:37           0        5.38       0.042
  YSB1154              JUNCTION    406.40   406.40     0  01:45       0.796       0.796       0.186
  YSB1171              JUNCTION      0.00   970.59     0  01:45           0        1.53       0.414
  YSB1174              JUNCTION    327.86   327.86     0  01:45       0.608       0.608       0.210
  YSB6556              JUNCTION      0.00   406.31     0  01:45           0       0.797       0.140
  CC-1                 OUTFALL       0.00   683.00     0  00:00           0        7.06       0.000
  CC-2                 OUTFALL       0.00   683.00     0  00:20           0         3.7       0.000
  JK-1                 OUTFALL       0.00  1000.00     0  00:00           0        3.56       0.000
  JK-2                 OUTFALL       0.00  1000.00     0  01:37           0        2.28       0.000
  WSC                  OUTFALL       0.00  1513.61     0  01:48           0        14.9       0.000
  CC-storage           STORAGE       0.00  3513.64     0  01:44           0        14.6      -0.942
  JK-storage           STORAGE       0.00  1663.66     0  02:21           0        4.74     -34.123
  XR-storage           STORAGE     200.00   200.00     0  00:00        4.32        4.92       0.001
  
  
  **********************
  Node Surcharge Summary
  **********************
  
  Surcharging occurs when water rises above the top of the highest conduit.
  ---------------------------------------------------------------------
                                               Max. Height   Min. Depth
                                   Hours       Above Crown    Below Rim
  Node                 Type      Surcharged         Meters       Meters
  ---------------------------------------------------------------------
  HS02004478           JUNCTION        0.60          0.667        0.273
  HS02004479           JUNCTION        0.75          0.920        0.130
  HS02004480           JUNCTION        0.80          0.974        0.126
  HS02004770           JUNCTION        0.69          0.720        0.000
  HS02004777           JUNCTION        0.69          0.780        0.000
  HS02004785           JUNCTION        0.64          0.790        0.000
  HS02004788           JUNCTION        0.62          0.720        0.000
  HS02004792           JUNCTION        0.76          0.900        0.000
  HS02004799           JUNCTION        0.90          1.060        0.000
  HS02004802           JUNCTION        0.80          1.090        0.120
  HS02004807           JUNCTION        0.78          1.220        0.000
  HS02004817           JUNCTION        1.53          1.740        0.000
  HS02004824           JUNCTION        0.61          1.310        0.000
  HS02004830           JUNCTION        0.59          1.330        0.000
  HS02004837           JUNCTION        0.56          1.340        0.000
  HS02004842           JUNCTION        0.69          1.520        0.000
  HS02004848           JUNCTION        0.53          1.300        0.070
  HS02004852           JUNCTION        0.55          1.332        0.088
  HS02004856           JUNCTION        0.54          1.300        0.000
  HS02004862           JUNCTION        0.55          1.300        0.000
  HS02004870           JUNCTION        0.54          1.400        0.000
  HS02004876           JUNCTION        0.60          1.560        0.000
  HS02004881           JUNCTION        0.57          1.450        0.000
  HS02004901           JUNCTION        0.70          0.720        0.000
  WS02004401           JUNCTION        1.85          1.101        0.559
  WS02004402           JUNCTION        1.87          1.092        0.648
  WS02004403           JUNCTION        1.88          0.937        1.093
  WS02004404           JUNCTION        1.98          0.802        1.978
  WS02004405           JUNCTION        1.94          0.818        1.982
  WS02004406           JUNCTION        1.92          0.729        1.721
  WS02004409           JUNCTION        1.26          0.388        1.972
  WS02004410           JUNCTION        1.13          0.295        2.245
  WS02004411           JUNCTION        1.04          0.201        2.329
  WS02004412           JUNCTION        0.94          0.103        2.207
  WS02004413           JUNCTION        1.61          0.144        2.056
  WS02006109           JUNCTION        2.81          1.820        0.000
  WS02006110           JUNCTION        2.11          1.481        0.369
  WS02006111           JUNCTION        1.57          0.926        0.944
  WS02006112           JUNCTION        2.17          1.425        0.255
  WS02006113           JUNCTION        1.59          1.018        0.912
  WS02006115           JUNCTION        1.75          1.907        0.343
  WS02006116           JUNCTION        1.77          2.147        0.143
  WS02006228           JUNCTION        2.76          2.200        0.000
  WS02006229           JUNCTION        1.09          1.066        0.004
  WS02006230           JUNCTION        2.05          1.570        0.000
  WS02006231           JUNCTION        2.09          1.479        0.051
  WS02006232           JUNCTION        2.82          1.480        0.000
  WS02006234           JUNCTION        2.33          1.240        0.000
  WS02006235           JUNCTION        2.53          1.290        0.000
  WS02006238           JUNCTION        2.64          1.317        0.113
  WS02006239           JUNCTION        2.51          1.290        0.000
  WS02006240           JUNCTION        2.49          1.390        0.000
  WS02006242           JUNCTION        2.77          0.820        0.000
  WS02006243           JUNCTION        2.51          0.770        0.000
  WS02006245           JUNCTION        2.50          0.850        0.000
  WS02006247           JUNCTION        2.55          0.760        0.000
  WS02006248           JUNCTION        2.44          0.380        0.000
  WS02006249           JUNCTION        2.51          0.390        0.000
  WS02006251           JUNCTION        1.98          1.180        0.000
  WS02006252           JUNCTION        2.89          1.100        0.000
  WS02006253           JUNCTION        2.00          2.269        0.211
  WS02006256           JUNCTION        5.98          2.050        0.000
  WS02006280           JUNCTION        0.94          0.721        0.059
  WS02006284           JUNCTION        0.82          0.669        0.131
  WS02006287           JUNCTION        0.71          0.740        0.150
  YS02001580           JUNCTION        0.75          0.450        0.000
  YS02001583           JUNCTION        0.76          0.500        0.000
  YS02001586           JUNCTION        0.96          0.510        0.000
  YS02001590           JUNCTION        1.06          0.745        0.005
  YS02001593           JUNCTION        1.06          0.723        0.117
  YS02001596           JUNCTION        1.21          0.961        0.109
  YS02001600           JUNCTION        1.39          1.190        0.000
  YS02001601           JUNCTION        1.72          1.440        0.000
  YS02001602           JUNCTION        1.66          1.270        0.000
  YS02001605           JUNCTION        1.63          1.178        0.002
  YS02001607           JUNCTION        1.11          0.646        0.034
  YS02001610           JUNCTION        1.14          0.680        0.000
  YS02001613           JUNCTION        1.10          0.676        0.024
  YS02001616           JUNCTION        1.05          0.610        0.000
  YS02001619           JUNCTION        1.03          0.610        0.000
  YS02001622           JUNCTION        1.03          0.620        0.000
  YS02001625           JUNCTION        1.25          0.780        0.000
  YS02001629           JUNCTION        0.97          0.470        0.000
  YS02001633           JUNCTION        1.40          1.021        0.039
  YS02001641           JUNCTION        1.36          0.965        0.135
  YS02001644           JUNCTION        1.31          0.920        0.000
  YS02001647           JUNCTION        1.04          0.810        0.090
  YS02001649           JUNCTION        1.31          1.050        0.000
  YS02001652           JUNCTION        0.74          1.130        0.000
  YS02001655           JUNCTION        0.37          1.200        0.000
  YS02001658           JUNCTION        0.20          1.300        0.000
  YS02001661           JUNCTION        0.01          0.719        0.671
  YS02001748           JUNCTION        0.07          1.190        0.000
  YS02001751           JUNCTION        0.25          1.118        0.082
  YS02001754           JUNCTION        0.42          1.150        0.000
  YS02001757           JUNCTION        1.50          1.206        0.004
  YS02001759           JUNCTION        1.33          1.145        0.065
  YS02001762           JUNCTION        1.16          1.147        0.003
  YS02001765           JUNCTION        1.11          1.100        0.000
  YS02001767           JUNCTION        1.08          1.030        0.000
  YS02001770           JUNCTION        0.91          0.920        0.000
  YS02001774           JUNCTION        1.14          1.010        0.040
  YS02001779           JUNCTION        0.42          0.680        0.000
  YS02001783           JUNCTION        0.75          1.126        0.474
  YS02001784           JUNCTION        0.72          0.729        0.761
  YS02001786           JUNCTION        0.60          0.693        0.737
  YS02001788           JUNCTION        0.08          0.552        0.928
  YS02001790           JUNCTION        0.09          0.809        0.348
  YS02001791           JUNCTION        0.09          0.916        1.004
  YS02001793           JUNCTION        0.11          0.923        1.677
  YS02001882           JUNCTION        0.59          0.830        0.000
  YS02001884           JUNCTION        0.60          0.856        0.014
  YS02001887           JUNCTION        0.64          0.866        0.084
  YS02001890           JUNCTION        0.65          0.760        0.000
  YS02001895           JUNCTION        0.58          0.750        0.000
  YS02001898           JUNCTION        0.57          0.740        0.000
  YS02001901           JUNCTION        0.62          0.870        0.000
  YS02001904           JUNCTION        0.61          0.648        0.202
  YS02001907           JUNCTION        0.89          0.950        0.000
  YS02001910           JUNCTION        0.72          1.054        0.046
  YS02001915           JUNCTION        0.59          0.992        0.008
  YS02001918           JUNCTION        0.50          0.810        0.000
  YS02001920           JUNCTION        0.51          1.092        0.048
  YS02001923           JUNCTION        0.06          0.820        0.000
  YS02001926           JUNCTION        0.13          0.900        0.000
  YS02001929           JUNCTION        0.01          0.780        0.000
  YS02006553           JUNCTION        0.91          1.099        0.091
  YS02006556           JUNCTION        0.81          1.188        0.162
  YS02006558           JUNCTION        0.79          1.224        0.176
  YS02006561           JUNCTION        0.46          0.990        0.160
  YS02163301           JUNCTION        1.29          0.930        0.100
  YS02163601           JUNCTION        1.51          1.064        0.016
  YS02164001           JUNCTION        1.28          0.978        0.122
  YSB1154              JUNCTION        1.06          1.280        0.120
  YSB1171              JUNCTION        1.07          1.100        0.000
  YSB1174              JUNCTION        0.94          1.109        0.141
  YSB6556              JUNCTION        0.86          1.100        0.000
  
  
  *********************
  Node Flooding Summary
  *********************
  
  Flooding refers to all water that overflows a node, whether it ponds or not.
  --------------------------------------------------------------------------
                                                             Total   Maximum
                                 Maximum   Time of Max       Flood    Ponded
                        Hours       Rate    Occurrence      Volume     Depth
  Node                 Flooded       LPS   days hr:min    10^6 ltr    Meters
  --------------------------------------------------------------------------
  HS02004770              0.44    986.27      0  01:45       0.824     0.000
  HS02004777              0.01     45.64      0  01:36       0.001     0.000
  HS02004785              0.01    219.55      0  01:36       0.001     0.000
  HS02004788              0.01    712.28      0  01:36       0.008     0.000
  HS02004792              0.46   1475.70      0  01:45       1.374     0.000
  HS02004799              0.22    190.51      0  01:42       0.103     0.000
  HS02004807              0.08    184.95      0  01:45       0.024     0.000
  HS02004817              0.01     21.38      0  01:37       0.000     0.000
  HS02004824              0.01     42.55      0  01:37       0.000     0.000
  HS02004830              0.01     14.77      0  01:37       0.000     0.000
  HS02004837              0.01    235.27      0  01:37       0.000     0.000
  HS02004842              0.01     18.25      0  01:38       0.000     0.000
  HS02004856              0.01     21.78      0  01:38       0.000     0.000
  HS02004862              0.01     98.40      0  01:38       0.001     0.000
  HS02004870              0.01     56.54      0  01:38       0.000     0.000
  HS02004876              0.01    313.46      0  01:38       0.001     0.000
  HS02004881              0.01    730.38      0  01:38       0.003     0.000
  HS02004901              0.55    613.85      0  01:45       0.820     0.000
  WS02006109              0.53    275.37      0  01:45       0.315     0.000
  WS02006228              0.01      4.71      0  01:36       0.000     0.000
  WS02006230              0.84    572.67      0  01:42       1.179     0.000
  WS02006232              0.20      0.68      0  02:10       0.000     0.000
  WS02006234              0.93    128.25      0  01:39       0.224     0.000
  WS02006235              0.01     12.75      0  02:30       0.000     0.000
  WS02006239              0.01     63.17      0  01:27       0.000     0.000
  WS02006240              0.01    150.69      0  01:27       0.000     0.000
  WS02006242              1.02    329.28      0  01:27       0.440     0.000
  WS02006243              0.01    240.01      0  01:27       0.000     0.000
  WS02006245              0.01    124.37      0  01:27       0.000     0.000
  WS02006247              0.01    232.73      0  01:27       0.000     0.000
  WS02006248              1.55    339.15      0  01:35       1.530     0.000
  WS02006249              2.03   1295.77      0  01:45       4.481     0.000
  WS02006251              0.01     81.73      0  01:38       0.000     0.000
  WS02006252              0.53    488.16      0  01:50       0.397     0.000
  WS02006256              0.93    294.12      0  02:20       0.492     0.000
  YS02001580              0.01    100.06      0  01:36       0.000     0.000
  YS02001583              0.01    203.46      0  01:36       0.000     0.000
  YS02001586              0.60    362.99      0  01:45       0.396     0.000
  YS02001600              0.01      1.16      0  01:36       0.000     0.000
  YS02001601              0.84   1150.25      0  01:45       1.594     0.000
  YS02001602              0.67     61.99      0  02:08       0.136     0.000
  YS02001610              0.59    637.10      0  01:45       0.748     0.000
  YS02001616              0.01     42.35      0  01:36       0.000     0.000
  YS02001619              0.01     97.66      0  01:36       0.000     0.000
  YS02001622              0.01    212.36      0  01:36       0.000     0.000
  YS02001625              0.52   1290.10      0  01:45       1.166     0.000
  YS02001629              0.10    313.27      0  01:36       0.032     0.000
  YS02001644              0.17    536.11      0  01:40       0.201     0.000
  YS02001649              0.01     28.28      0  01:39       0.000     0.000
  YS02001652              0.01     48.89      0  01:39       0.000     0.000
  YS02001655              0.01    380.69      0  01:38       0.000     0.000
  YS02001658              0.01    311.41      0  01:39       0.000     0.000
  YS02001748              0.01    356.15      0  01:39       0.000     0.000
  YS02001754              0.01     42.17      0  01:39       0.000     0.000
  YS02001765              0.01      5.42      0  01:39       0.000     0.000
  YS02001770              0.01    226.65      0  01:38       0.000     0.000
  YS02001779              0.14    488.16      0  01:38       0.082     0.000
  YS02001882              0.01     17.75      0  01:37       0.000     0.000
  YS02001890              0.18    183.50      0  01:44       0.078     0.000
  YS02001895              0.01     83.35      0  01:37       0.000     0.000
  YS02001898              0.01    227.03      0  01:36       0.000     0.000
  YS02001901              0.01     68.14      0  01:37       0.000     0.000
  YS02001907              0.43   1688.26      0  01:45       1.375     0.000
  YS02001918              0.01    178.42      0  01:38       0.003     0.000
  YS02001923              0.01    150.66      0  01:38       0.000     0.000
  YS02001926              0.01    643.99      0  01:38       0.005     0.000
  YS02001929              0.01    757.14      0  01:38       0.002     0.000
  YSB1171                 0.34    970.51      0  01:45       0.681     0.000
  YSB6556                 0.01     12.90      0  01:36       0.000     0.000
  JK-storage              0.08    763.16      0  02:16       0.213     0.000
  
  
  **********************
  Storage Volume Summary
  **********************
  
  --------------------------------------------------------------------------------------------------
                         Average     Avg  Evap Exfil       Maximum     Max    Time of Max    Maximum
                          Volume    Pcnt  Pcnt  Pcnt        Volume    Pcnt     Occurrence    Outflow
  Storage Unit           1000 m3    Full  Loss  Loss       1000 m3    Full    days hr:min        LPS
  --------------------------------------------------------------------------------------------------
  CC-storage               2.062      32     0     0         5.104      80       0  02:33    1766.00
  JK-storage               0.009       3     0     0         0.291     100       0  02:15    2300.00
  XR-storage               0.922      64     0     0         1.039      72       0  06:00     190.00
  
  
  ***********************
  Outfall Loading Summary
  ***********************
  
  -----------------------------------------------------------
                         Flow       Avg       Max       Total
                         Freq      Flow      Flow      Volume
  Outfall Node           Pcnt       LPS       LPS    10^6 ltr
  -----------------------------------------------------------
  CC-1                  59.97    583.60    683.00       7.058
  CC-2                  24.99    632.15    683.00       3.703
  JK-1                  59.20    291.04   1000.00       3.560
  JK-2                  33.57    335.54   1000.00       2.282
  WSC                   99.97    690.13   1513.61      14.883
  -----------------------------------------------------------
  System                55.54   2532.47   4869.98      31.487
  
  
  ********************
  Link Flow Summary
  ********************
  
  -----------------------------------------------------------------------------
                                 Maximum  Time of Max   Maximum    Max/    Max/
                                  |Flow|   Occurrence   |Veloc|    Full    Full
  Link                 Type          LPS  days hr:min     m/sec    Flow   Depth
  -----------------------------------------------------------------------------
  1                    CONDUIT   1513.61     0  01:48      3.70    0.53    0.52
  HS02004478WS02006287 CONDUIT   2302.96     0  01:42      2.56    0.64    1.00
  HS02004479HS02004480 CONDUIT    533.36     0  01:37      0.76    0.52    1.00
  HS02004480HS02004478 CONDUIT   2173.69     0  01:37      3.11    9.16    1.00
  HS02004770HS02004777 CONDUIT    906.49     0  01:36      1.29    1.66    1.00
  HS02004777HS02004785 CONDUIT    899.31     0  01:36      1.31    1.11    1.00
  HS02004785HS02004788 CONDUIT    893.31     0  01:36      1.36    6.74    1.00
  HS02004788HS02004792 CONDUIT    820.86     0  01:36      1.43    0.54    1.00
  HS02004792HS02004799 CONDUIT   1502.22     0  01:36      2.15    0.92    1.00
  HS02004799HS02004480 CONDUIT   1712.69     0  01:37      2.45    2.16    1.00
  HS02004802HS02004478 CONDUIT   1232.79     0  01:45      1.76    1.09    1.00
  HS02004807HS02004802 CONDUIT   1232.54     0  01:45      1.76    2.35    1.00
  HS02004817HS02004807 CONDUIT    988.30     0  01:45      1.41    0.59    1.00
  HS02004817HS02004824 CONDUIT    987.40     0  01:45      1.41    0.45    1.00
  HS02004824HS02004830 CONDUIT    751.74     0  01:36      1.07    0.98    1.00
  HS02004830HS02004837 CONDUIT    768.96     0  01:36      1.17    0.77    1.00
  HS02004837HS02004842 CONDUIT    977.02     0  01:37      1.40    0.58    1.00
  HS02004842HS02004848 CONDUIT    975.20     0  01:37      1.56    0.57    1.00
  HS02004848HS02004852 CONDUIT   1192.31     0  01:37      1.71    1.34    1.00
  HS02004852HS02004856 CONDUIT   1198.25     0  01:37      1.71    1.37    1.00
  HS02004856HS02004862 CONDUIT   1320.38     0  01:38      1.90    1.32    1.00
  HS02004862HS02004870 CONDUIT   1440.62     0  01:38      2.18    1.56    1.00
  HS02004870HS02004876 CONDUIT   1539.67     0  01:38      2.20    1.02    1.00
  HS02004876HS02004881 CONDUIT   1712.55     0  01:38      2.63   18.21    1.00
  HS02004881HS02006253 CONDUIT   1573.97     0  01:38      2.25    0.31    1.00
  HS02004901HS02004770 CONDUIT    265.79     0  02:02      0.38    1.00    1.00
  WS02001211WS02001212 CONDUIT    205.17     0  02:34      0.54    0.16    0.69
  WS02001212WS02001213 CONDUIT    229.60     0  01:39      1.04    0.35    0.56
  WS02001213WS02003059 CONDUIT    212.50     0  03:26      0.46    0.35    0.90
  WS02003059WS02003060 CONDUIT    217.55     0  03:25      0.64    0.14    0.81
  WS02003060WS02003069 CONDUIT   1512.63     0  01:46      2.09    0.59    0.61
  WS02003066WSF200     CONDUIT   1302.37     0  01:45      3.38    0.22    0.39
  WS02003067WS02003066 CONDUIT   1302.49     0  01:45      2.00    0.42    0.56
  WS02003069WS02003072 CONDUIT   1512.60     0  01:46      1.90    0.73    0.66
  WS02003072WS02003073 CONDUIT   1512.31     0  01:47      2.06    3.27    0.62
  WS02004138WS02004139 CONDUIT    190.00     0  00:32      2.17    0.04    0.42
  WS02004139WS02001211 CONDUIT    210.73     0  01:36      0.55    0.27    0.61
  WS02004401WS02004402 CONDUIT   1303.11     0  01:44      1.66    1.56    1.00
  WS02004402WS02004403 CONDUIT   1303.50     0  01:45      1.66    1.87    1.00
  WS02004403WS02004404 CONDUIT   1303.23     0  01:44      1.66    0.94    1.00
  WS02004404WS02004405 CONDUIT   1303.52     0  01:45      1.66   12.77    1.00
  WS02004405WS02004406 CONDUIT   1303.22     0  01:44      1.66    2.57    1.00
  WS02004406WS02004407 CONDUIT   1303.17     0  01:44      1.83    0.58    0.96
  WS02004407WS02004409 CONDUIT   1302.41     0  01:45      2.05    0.46    0.96
  WS02004409WS02004410 CONDUIT   1302.30     0  01:45      1.66    1.68    1.00
  WS02004410WS02004411 CONDUIT   1302.26     0  01:45      1.66    1.78    1.00
  WS02004411WS02004412 CONDUIT   1302.20     0  01:45      1.66    1.85    1.00
  WS02004412WS02004413 CONDUIT   1302.14     0  01:45      1.66    0.87    1.00
  WS02004413WS02003067 CONDUIT   1302.17     0  01:45      2.01    0.56    0.77
  WS02006109WS02006110 CONDUIT   1123.76     0  02:07      2.24    2.16    1.00
  WS02006110WS02006113 CONDUIT   1123.72     0  02:07      2.24    1.02    1.00
  WS02006111WS02006112 CONDUIT   1123.87     0  02:08      2.24    0.53    1.00
  WS02006112WS02006115 CONDUIT   1303.04     0  01:44      1.66    0.77    1.00
  WS02006113WS02006111 CONDUIT   1123.76     0  02:07      2.74    1.35    1.00
  WS02006115WS02006116 CONDUIT   1303.00     0  01:44      1.66    1.67    1.00
  WS02006116WS02004401 CONDUIT   1302.85     0  01:45      1.66    1.80    1.00
  WS02006228WS02006109 CONDUIT   1287.75     0  01:42      2.56    5.63    1.00
  WS02006229WS02006228 CONDUIT   1287.80     0  01:42      2.56    4.27    1.00
  WS02006230WS02006229 CONDUIT   1015.20     0  01:42      2.64   22.59    1.00
  WS02006231WS02006230 CONDUIT    467.57     0  03:30      1.35    7.09    1.00
  WS02006232WS02006231 CONDUIT    467.26     0  03:30      1.21    0.98    1.00
  WS02006234WS02006232 CONDUIT    466.20     0  03:30      1.41    0.94    1.00
  WS02006235WS02006234 CONDUIT    462.60     0  03:30      1.20    4.88    1.00
  WS02006238WS02006235 CONDUIT    415.73     0  02:20      1.62    0.93    1.00
  WS02006239WS02006238 CONDUIT    414.86     0  01:37      1.08    1.33    1.00
  WS02006240WS02006239 CONDUIT    414.77     0  02:22      1.08    1.31    1.00
  WS02006242WS02006240 CONDUIT    414.74     0  01:37      1.08    1.65    1.00
  WS02006243WS02006242 CONDUIT    408.08     0  04:07      1.10    0.87    1.00
  WS02006245WS02006243 CONDUIT    408.08     0  04:07      1.22    1.21    1.00
  WS02006247WS02006245 CONDUIT    408.10     0  04:06      1.19    3.24    1.00
  WS02006248WS02006247 CONDUIT    408.12     0  04:06      1.28    0.89    1.00
  WS02006249WS02006248 CONDUIT    408.41     0  04:02      1.27    2.24    1.00
  WS02006251WS02006249 CONDUIT   1356.71     0  01:45      3.53    3.91    1.00
  WS02006252WS02006251 CONDUIT    414.47     0  02:40      4.25    1.52    1.00
  WS02006253WS02006251 CONDUIT   1604.95     0  01:38      4.17    4.81    1.00
  WS02006256WS02006235 CONDUIT    289.10     0  00:00      4.25    3.06    1.00
  WS02006280WS02006229 CONDUIT   2303.72     0  01:42      4.15    0.49    1.00
  WS02006284WS02006280 CONDUIT   2303.17     0  01:42      3.02    0.96    1.00
  WS02006287WS02006284 CONDUIT   2302.79     0  01:42      2.93    1.07    1.00
  WSF200WS02003060     CONDUIT   1302.53     0  01:45      2.58    0.29    0.50
  YS02001580YS02001583 CONDUIT    164.08     0  01:36      0.88    0.64    1.00
  YS02001583YS02001586 CONDUIT    206.85     0  01:36      0.91    0.31    1.00
  YS02001586YS02001590 CONDUIT    317.93     0  02:02      1.27    0.56    1.00
  YS02001590YS02001593 CONDUIT    317.91     0  02:08      1.12    2.00    1.00
  YS02001593YS02001596 CONDUIT    317.95     0  02:08      1.67    0.50    1.00
  YS02001596YS02001600 CONDUIT    317.98     0  02:02      1.19    0.62    1.00
  YS02001600YS02001601 CONDUIT    317.82     0  02:02      1.12    0.55    1.00
  YS02001601YS02001602 CONDUIT    567.89     0  01:36      2.01    2.05    1.00
  YS02001602YS02001605 CONDUIT    567.78     0  01:36      2.01   12.02    1.00
  YS02001605YS02001607 CONDUIT    567.66     0  01:36      2.01    3.11    1.00
  YS02001607YS02001610 CONDUIT    552.51     0  01:36      0.70    0.53    1.00
  YS02001610YS02001613 CONDUIT    561.56     0  01:36      0.71    0.65    1.00
  YS02001613YS02001616 CONDUIT    575.71     0  01:36      0.74    0.49    1.00
  YS02001616YS02001619 CONDUIT    504.21     0  01:36      0.69    0.88    1.00
  YS02001619YS02001622 CONDUIT    937.23     0  01:36      1.26    1.38    1.00
  YS02001622YS02001625 CONDUIT    932.61     0  01:36      1.19    0.50    1.00
  YS02001625YS02001629 CONDUIT    918.24     0  01:36      1.17    0.44    1.00
  YS02001629YS02163301 CONDUIT    902.61     0  01:37      1.15    1.11    1.00
  YS02001633YS02163601 CONDUIT   1435.01     0  01:37      1.83    1.51    1.00
  YS02001641YS02001644 CONDUIT   1433.20     0  01:37      1.82    4.63    1.00
  YS02001644YS02001647 CONDUIT   1934.37     0  01:37      2.46    1.14    1.00
  YS02001647YS02001649 CONDUIT   1929.57     0  01:37      2.46    1.02    1.00
  YS02001649YS02001757 CONDUIT   2221.23     0  01:38      2.83    1.35    1.00
  YS02001652YS02001649 CONDUIT    867.96     0  01:41      1.11    0.43    1.00
  YS02001655YS02001652 CONDUIT    868.08     0  01:41      1.46    0.42    1.00
  YS02001658YS02001655 CONDUIT    867.23     0  01:41      2.04    0.37    1.00
  YS02001661YS02001658 CONDUIT    866.96     0  01:41      2.44    0.34    1.00
  YS02001664YS02001661 CONDUIT    819.56     0  01:40      2.47    0.26    0.84
  YS02001745YS02001748 CONDUIT    704.32     0  01:39      2.37    0.27    0.98
  YS02001748YS02001751 CONDUIT    597.54     0  01:40      1.91    0.30    1.00
  YS02001751YS02001754 CONDUIT    597.90     0  01:40      1.54    0.29    1.00
  YS02001754YS02001757 CONDUIT    598.26     0  01:40      0.76    0.24    1.00
  YS02001757CaochengTiaoxuchi CONDUIT   3513.64     0  01:44      5.74    1.52    1.00
  YS02001759YS02001757 CONDUIT   1413.91     0  01:39      1.80    1.00    1.00
  YS02001762YS02001759 CONDUIT    827.46     0  01:47      1.05    0.95    1.00
  YS02001765YS02001762 CONDUIT    827.26     0  01:47      1.05    0.78    1.00
  YS02001767YS02001765 CONDUIT    826.74     0  01:47      1.05    1.04    1.00
  YS02001770YS02001767 CONDUIT    826.21     0  01:47      1.05    3.27    1.00
  YS02001774YS02001770 CONDUIT    514.17     0  01:38      0.65    0.33    1.00
  YS02001779YS02001774 CONDUIT    517.36     0  01:38      0.66    0.26    1.00
  YS02001783YS02001784 CONDUIT   1160.05     0  01:40      2.31    1.60    1.00
  YS02001784YS02001785 CONDUIT   1160.77     0  01:40      2.31    2.70    1.00
  YS02001786YS02001788 CONDUIT   1167.53     0  01:37      2.50    2.25    1.00
  YS02001788YS02001790 CONDUIT   1172.06     0  01:38      2.72    0.86    1.00
  YS02001790YS02001791 CONDUIT   1291.06     0  01:42      3.44    1.40    1.00
  YS02001791YS02001793 CONDUIT   1304.28     0  02:21      6.70    0.56    1.00
  YS02001793JiankangQianchi CONDUIT   1663.66     0  02:21     24.96    0.13    1.00
  YS02001882YS02001884 CONDUIT    120.28     0  01:36      0.16    0.14    1.00
  YS02001884YS02001887 CONDUIT    162.08     0  01:36      0.21    0.22    1.00
  YS02001887YS02001890 CONDUIT    699.90     0  01:44      0.89    1.20    1.00
  YS02001890YS02001895 CONDUIT    562.53     0  01:37      0.72    0.26    1.00
  YS02001895YS02001898 CONDUIT    562.84     0  01:37      0.72    0.98    1.00
  YS02001898YS02001901 CONDUIT    569.10     0  01:37      0.72    0.37    1.00
  YS02001901YS02001904 CONDUIT    570.83     0  01:37      0.73    0.89    1.00
  YS02001904YS02001907 CONDUIT    572.57     0  01:37      0.73    0.20    1.00
  YS02001907YS02006553 CONDUIT    791.90     0  02:04      0.88    0.93    1.00
  YS02001910YS02001907 CONDUIT   1333.52     0  01:45      1.70    0.75    1.00
  YS02001915YS02001910 CONDUIT   1333.33     0  01:45      1.70    0.66    1.00
  YS02001918YS02001915 CONDUIT    649.66     0  01:37      0.86    0.36    1.00
  YS02001920YS02001918 CONDUIT    653.83     0  01:37      0.83    0.63    1.00
  YS02001923YS02001920 CONDUIT    671.82     0  01:37      0.91    0.30    1.00
  YS02001926YS02001923 CONDUIT    890.52     0  01:38      1.34    1.27    1.00
  YS02001929YS02001926 CONDUIT    631.04     0  01:38      1.22    0.30    1.00
  YS02006553YS02006556 CONDUIT    791.74     0  02:04      1.01    0.68    1.00
  YS02006556YS02006558 CONDUIT    793.07     0  02:06      1.01    0.63    1.00
  YS02006558YS02006561 CONDUIT   1192.66     0  01:37      4.22    2.64    1.00
  YS02006561YS02001783 CONDUIT   1159.74     0  01:39      2.31    0.60    1.00
  YS02163301YS02001633 CONDUIT    902.60     0  01:37      1.15    0.85    1.00
  YS02163601YS02164001 CONDUIT   1434.75     0  01:37      1.83    1.27    1.00
  YS02164001YS02001641 CONDUIT   1433.41     0  01:37      1.83    1.96    1.00
  YSB1154YSB6556       CONDUIT    406.31     0  01:45      1.06    0.73    1.00
  YSB1171HS02004479    CONDUIT    533.42     0  01:37      1.06    0.36    1.00
  YSB1174YSB1171       CONDUIT    327.86     0  01:45      0.85    0.50    1.00
  YSB6556YSB1171       CONDUIT    406.51     0  01:45      1.06    0.42    1.00
  CC-R1                PUMP       683.00     0  00:00              1.00
  CC-R2                PUMP       683.00     0  00:20              1.00
  CC-S1                PUMP       200.00     0  00:00              1.00
  CC-S2                PUMP       200.00     0  00:10              1.00
  JK-R1                PUMP      1000.00     0  00:00              1.00
  JK-R2                PUMP      1000.00     0  01:37              1.00
  JK-S                 PUMP       300.00     0  00:00              1.00
  XR-1                 PUMP        95.00     0  00:10              1.00
  XR-2                 PUMP        95.00     0  00:29              1.00
  XR-3                 PUMP         0.00     0  00:00              0.00
  XR-4                 PUMP         0.00     0  00:00              0.00
  
  
  ***************************
  Flow Classification Summary
  ***************************
  
  -------------------------------------------------------------------------------------
                      Adjusted    ---------- Fraction of Time in Flow Class ---------- 
                       /Actual         Up    Down  Sub   Sup   Up    Down  Norm  Inlet 
  Conduit               Length    Dry  Dry   Dry   Crit  Crit  Crit  Crit  Ltd   Ctrl  
  -------------------------------------------------------------------------------------
  1                       1.00   0.00  0.00  0.00  0.00  1.00  0.00  0.00  0.62  0.00
  HS02004478WS02006287    1.00   0.15  0.00  0.00  0.62  0.22  0.00  0.00  0.45  0.00
  HS02004479HS02004480    1.00   0.07  0.00  0.00  0.93  0.00  0.00  0.00  0.14  0.00
  HS02004480HS02004478    1.00   0.14  0.00  0.00  0.53  0.00  0.00  0.34  0.00  0.00
  HS02004770HS02004777    1.00   0.00  0.14  0.00  0.86  0.00  0.00  0.00  0.03  0.00
  HS02004777HS02004785    1.00   0.00  0.00  0.00  1.00  0.00  0.00  0.00  0.15  0.00
  HS02004785HS02004788    1.00   0.00  0.00  0.00  1.00  0.00  0.00  0.00  0.00  0.00
  HS02004788HS02004792    1.00   0.00  0.00  0.00  0.98  0.02  0.00  0.00  0.84  0.00
  HS02004792HS02004799    1.00   0.00  0.00  0.00  0.97  0.03  0.00  0.00  0.77  0.00
  HS02004799HS02004480    1.00   0.01  0.06  0.00  0.85  0.00  0.09  0.00  0.00  0.00
  HS02004802HS02004478    1.00   0.14  0.00  0.00  0.86  0.00  0.00  0.00  0.03  0.00
  HS02004807HS02004802    1.00   0.14  0.00  0.00  0.85  0.00  0.00  0.01  0.00  0.00
  HS02004817HS02004807    1.00   0.00  0.14  0.00  0.86  0.00  0.00  0.00  0.02  0.00
  HS02004817HS02004824    1.00   0.00  0.00  0.00  1.00  0.00  0.00  0.00  0.72  0.00
  HS02004824HS02004830    1.00   0.00  0.00  0.00  1.00  0.00  0.00  0.00  0.01  0.00
  HS02004830HS02004837    1.00   0.00  0.00  0.00  1.00  0.00  0.00  0.00  0.81  0.00
  HS02004837HS02004842    1.00   0.00  0.00  0.00  0.98  0.02  0.00  0.00  0.14  0.00
  HS02004842HS02004848    1.00   0.00  0.14  0.00  0.86  0.00  0.00  0.00  0.40  0.00
  HS02004848HS02004852    1.00   0.14  0.00  0.00  0.86  0.00  0.00  0.00  0.60  0.00
  HS02004852HS02004856    1.00   0.14  0.00  0.00  0.86  0.00  0.00  0.00  0.53  0.00
  HS02004856HS02004862    1.00   0.00  0.16  0.00  0.84  0.00  0.00  0.00  0.63  0.00
  HS02004862HS02004870    1.00   0.00  0.00  0.00  1.00  0.00  0.00  0.00  0.03  0.00
  HS02004870HS02004876    1.00   0.01  0.00  0.00  0.98  0.01  0.00  0.00  0.78  0.00
  HS02004876HS02004881    1.00   0.05  0.00  0.00  0.75  0.20  0.00  0.00  0.00  0.00
  HS02004881HS02006253    1.00   0.01  0.08  0.00  0.73  0.02  0.00  0.16  0.53  0.00
  HS02004901HS02004770    1.00   0.14  0.00  0.00  0.86  0.00  0.00  0.00  0.00  0.00
  WS02001211WS02001212    1.00   0.00  0.05  0.00  0.95  0.00  0.00  0.00  0.00  0.00
  WS02001212WS02001213    1.00   0.05  0.00  0.00  0.70  0.00  0.25  0.00  0.00  0.00
  WS02001213WS02003059    1.00   0.01  0.02  0.00  0.98  0.00  0.00  0.00  0.00  0.00
  WS02003059WS02003060    1.00   0.00  0.00  0.00  0.99  0.01  0.00  0.00  0.04  0.00
  WS02003060WS02003069    1.00   0.00  0.00  0.00  0.96  0.04  0.00  0.00  0.21  0.00
  WS02003066WSF200        1.00   0.10  0.00  0.00  0.00  0.90  0.00  0.00  0.55  0.00
  WS02003067WS02003066    1.00   0.09  0.00  0.00  0.91  0.00  0.00  0.00  0.00  0.00
  WS02003069WS02003072    1.00   0.00  0.00  0.00  0.99  0.01  0.00  0.00  0.28  0.00
  WS02003072WS02003073    1.00   0.00  0.00  0.00  0.00  0.00  0.00  1.00  0.00  0.00
  WS02004138WS02004139    1.00   0.04  0.01  0.00  0.94  0.01  0.00  0.00  0.97  0.00
  WS02004139WS02001211    1.00   0.00  0.02  0.00  0.98  0.00  0.00  0.00  0.00  0.00
  WS02004401WS02004402    1.00   0.06  0.00  0.00  0.94  0.00  0.00  0.00  0.00  0.00
  WS02004402WS02004403    1.00   0.06  0.00  0.00  0.94  0.00  0.00  0.00  0.00  0.00
  WS02004403WS02004404    1.00   0.00  0.06  0.00  0.94  0.00  0.00  0.00  0.00  0.00
  WS02004404WS02004405    1.00   0.00  0.00  0.00  1.00  0.00  0.00  0.00  0.01  0.00
  WS02004405WS02004406    1.00   0.00  0.00  0.00  1.00  0.00  0.00  0.00  0.00  0.00
  WS02004406WS02004407    1.00   0.00  0.07  0.00  0.93  0.00  0.00  0.00  0.00  0.00
  WS02004407WS02004409    1.00   0.07  0.00  0.00  0.91  0.02  0.00  0.00  0.72  0.00
  WS02004409WS02004410    1.00   0.07  0.00  0.00  0.92  0.00  0.00  0.00  0.00  0.00
  WS02004410WS02004411    1.00   0.07  0.00  0.00  0.93  0.00  0.00  0.00  0.00  0.00
  WS02004411WS02004412    1.00   0.08  0.00  0.00  0.92  0.00  0.00  0.00  0.00  0.00
  WS02004412WS02004413    1.00   0.08  0.00  0.00  0.92  0.00  0.00  0.00  0.00  0.00
  WS02004413WS02003067    1.00   0.08  0.01  0.00  0.00  0.00  0.91  0.00  0.00  0.00
  WS02006109WS02006110    1.00   0.00  0.02  0.00  0.96  0.00  0.01  0.00  0.00  0.00
  WS02006110WS02006113    1.00   0.02  0.02  0.00  0.96  0.00  0.00  0.00  0.00  0.00
  WS02006111WS02006112    1.00   0.05  0.00  0.00  0.95  0.00  0.00  0.00  0.65  0.00
  WS02006112WS02006115    1.00   0.05  0.01  0.00  0.94  0.00  0.00  0.00  0.00  0.00
  WS02006113WS02006111    1.00   0.04  0.00  0.00  0.28  0.68  0.00  0.00  0.12  0.00
  WS02006115WS02006116    1.00   0.05  0.00  0.00  0.94  0.00  0.00  0.01  0.00  0.00
  WS02006116WS02004401    1.00   0.05  0.00  0.00  0.94  0.00  0.00  0.00  0.00  0.00
  WS02006228WS02006109    1.00   0.00  0.00  0.00  0.99  0.00  0.00  0.01  0.00  0.00
  WS02006229WS02006228    1.00   0.00  0.00  0.00  0.98  0.00  0.00  0.02  0.00  0.00
  WS02006230WS02006229    1.00   0.00  0.00  0.00  0.97  0.00  0.00  0.03  0.00  0.00
  WS02006231WS02006230    1.00   0.01  0.00  0.00  0.63  0.00  0.37  0.00  0.00  0.00
  WS02006232WS02006231    1.00   0.00  0.00  0.00  0.99  0.00  0.01  0.00  0.00  0.00
  WS02006234WS02006232    1.00   0.00  0.00  0.00  0.99  0.00  0.00  0.00  0.00  0.00
  WS02006235WS02006234    1.00   0.00  0.00  0.00  0.97  0.00  0.03  0.00  0.00  0.00
  WS02006238WS02006235    1.00   0.00  0.00  0.00  1.00  0.00  0.00  0.00  0.00  0.00
  WS02006239WS02006238    1.00   0.00  0.00  0.00  1.00  0.00  0.00  0.00  0.00  0.00
  WS02006240WS02006239    1.00   0.00  0.00  0.00  0.95  0.00  0.00  0.04  0.01  0.00
  WS02006242WS02006240    1.00   0.01  0.00  0.00  0.98  0.00  0.01  0.00  0.00  0.00
  WS02006243WS02006242    1.00   0.01  0.00  0.00  0.99  0.00  0.00  0.00  0.23  0.00
  WS02006245WS02006243    1.00   0.01  0.00  0.00  0.94  0.00  0.00  0.06  0.00  0.00
  WS02006247WS02006245    1.00   0.00  0.00  0.00  0.98  0.00  0.00  0.02  0.00  0.00
  WS02006248WS02006247    1.00   0.00  0.00  0.00  0.99  0.00  0.00  0.01  0.23  0.00
  WS02006249WS02006248    1.00   0.00  0.00  0.00  0.87  0.00  0.13  0.00  0.00  0.00
  WS02006251WS02006249    1.00   0.00  0.00  0.00  1.00  0.00  0.00  0.00  0.22  0.00
  WS02006252WS02006251    1.00   0.00  0.00  0.00  0.31  0.00  0.68  0.00  0.00  0.00
  WS02006253WS02006251    1.00   0.00  0.00  0.00  1.00  0.00  0.00  0.00  0.00  0.00
  WS02006256WS02006235    1.00   0.00  0.00  0.00  0.99  0.01  0.00  0.00  0.00  0.00
  WS02006280WS02006229    1.00   0.14  0.00  0.00  0.25  0.03  0.00  0.58  0.01  0.00
  WS02006284WS02006280    1.00   0.14  0.00  0.00  0.16  0.01  0.00  0.69  0.00  0.00
  WS02006287WS02006284    1.00   0.13  0.03  0.00  0.47  0.37  0.00  0.00  0.54  0.00
  WSF200WS02003060        1.00   0.00  0.10  0.00  0.36  0.55  0.00  0.00  0.29  0.00
  YS02001580YS02001583    1.00   0.24  0.49  0.00  0.27  0.00  0.00  0.00  0.56  0.00
  YS02001583YS02001586    1.00   0.16  0.44  0.00  0.39  0.00  0.00  0.00  0.56  0.00
  YS02001586YS02001590    1.00   0.14  0.00  0.00  0.65  0.09  0.00  0.13  0.44  0.00
  YS02001590YS02001593    1.00   0.14  0.00  0.00  0.19  0.00  0.67  0.00  0.00  0.00
  YS02001593YS02001596    1.00   0.14  0.00  0.00  0.22  0.02  0.00  0.62  0.04  0.00
  YS02001596YS02001600    1.00   0.14  0.00  0.00  0.30  0.01  0.00  0.55  0.04  0.00
  YS02001600YS02001601    1.00   0.14  0.00  0.00  0.86  0.00  0.00  0.00  0.45  0.00
  YS02001601YS02001602    1.00   0.14  0.00  0.00  0.86  0.00  0.00  0.00  0.00  0.00
  YS02001602YS02001605    1.00   0.14  0.00  0.00  0.86  0.00  0.00  0.00  0.00  0.00
  YS02001605YS02001607    1.00   0.14  0.00  0.00  0.86  0.00  0.00  0.00  0.00  0.00
  YS02001607YS02001610    1.00   0.14  0.00  0.00  0.86  0.00  0.00  0.00  0.01  0.00
  YS02001610YS02001613    1.00   0.14  0.00  0.00  0.86  0.00  0.00  0.00  0.00  0.00
  YS02001613YS02001616    1.00   0.14  0.00  0.00  0.86  0.00  0.00  0.00  0.00  0.00
  YS02001616YS02001619    1.00   0.14  0.00  0.00  0.86  0.00  0.00  0.00  0.00  0.00
  YS02001619YS02001622    1.00   0.14  0.00  0.00  0.86  0.00  0.00  0.00  0.05  0.00
  YS02001622YS02001625    1.00   0.14  0.00  0.00  0.86  0.00  0.00  0.00  0.04  0.00
  YS02001625YS02001629    1.00   0.14  0.04  0.00  0.29  0.00  0.53  0.00  0.00  0.00
  YS02001629YS02163301    1.00   0.15  0.01  0.00  0.84  0.00  0.00  0.00  0.00  0.00
  YS02001633YS02163601    1.00   0.00  0.02  0.00  0.98  0.00  0.00  0.00  0.19  0.00
  YS02001641YS02001644    1.00   0.00  0.02  0.00  0.98  0.00  0.00  0.00  0.00  0.00
  YS02001644YS02001647    1.00   0.00  0.16  0.00  0.84  0.00  0.00  0.00  0.00  0.00
  YS02001647YS02001649    1.00   0.00  0.16  0.00  0.56  0.28  0.00  0.00  0.37  0.00
  YS02001649YS02001757    1.00   0.00  0.00  0.00  0.77  0.23  0.00  0.00  0.48  0.00
  YS02001652YS02001649    1.00   0.00  0.00  0.00  0.96  0.04  0.00  0.00  0.51  0.00
  YS02001655YS02001652    1.00   0.00  0.00  0.00  0.43  0.00  0.00  0.57  0.04  0.00
  YS02001658YS02001655    1.00   0.00  0.14  0.00  0.73  0.13  0.00  0.00  0.48  0.00
  YS02001661YS02001658    1.00   0.14  0.00  0.00  0.39  0.46  0.00  0.00  0.63  0.00
  YS02001664YS02001661    1.00   0.14  0.00  0.00  0.67  0.20  0.00  0.00  0.81  0.00
  YS02001745YS02001748    1.00   0.00  0.00  0.00  0.23  0.00  0.00  0.76  0.20  0.00
  YS02001748YS02001751    1.00   0.00  0.00  0.00  0.89  0.11  0.00  0.00  0.59  0.00
  YS02001751YS02001754    1.00   0.00  0.00  0.00  0.42  0.01  0.00  0.58  0.04  0.00
  YS02001754YS02001757    1.00   0.00  0.00  0.00  1.00  0.00  0.00  0.00  0.59  0.00
  YS02001757CaochengTiaoxuchi    1.00   0.00  0.00  0.00  0.71  0.29  0.00  0.00  0.24  0.00
  YS02001759YS02001757    1.00   0.00  0.00  0.00  1.00  0.00  0.00  0.00  0.46  0.00
  YS02001762YS02001759    1.00   0.00  0.00  0.00  1.00  0.00  0.00  0.00  0.03  0.00
  YS02001765YS02001762    1.00   0.00  0.00  0.00  1.00  0.00  0.00  0.00  0.49  0.00
  YS02001767YS02001765    1.00   0.00  0.00  0.00  1.00  0.00  0.00  0.00  0.00  0.00
  YS02001770YS02001767    1.00   0.00  0.00  0.00  1.00  0.00  0.00  0.00  0.00  0.00
  YS02001774YS02001770    1.00   0.01  0.13  0.00  0.86  0.00  0.00  0.00  0.03  0.00
  YS02001779YS02001774    1.00   0.00  0.00  0.00  1.00  0.00  0.00  0.00  0.55  0.00
  YS02001783YS02001784    1.00   0.00  0.18  0.00  0.82  0.00  0.00  0.00  0.40  0.00
  YS02001784YS02001785    1.00   0.00  0.00  0.00  1.00  0.00  0.00  0.00  0.21  0.00
  YS02001786YS02001788    1.00   0.00  0.00  0.00  0.72  0.28  0.00  0.00  0.00  0.00
  YS02001788YS02001790    1.00   0.00  0.00  0.00  0.26  0.74  0.00  0.00  0.72  0.00
  YS02001790YS02001791    1.00   0.00  0.00  0.00  0.04  0.96  0.00  0.00  0.21  0.00
  YS02001791YS02001793    1.00   0.00  0.00  0.00  0.01  0.98  0.00  0.00  0.02  0.00
  YS02001793JiankangQianchi    1.00   0.00  0.00  0.00  0.17  0.82  0.00  0.00  0.22  0.00
  YS02001882YS02001884    1.00   0.15  0.01  0.00  0.85  0.00  0.00  0.00  0.00  0.00
  YS02001884YS02001887    1.00   0.10  0.03  0.00  0.87  0.00  0.00  0.00  0.00  0.00
  YS02001887YS02001890    1.00   0.00  0.01  0.00  0.94  0.00  0.05  0.00  0.00  0.00
  YS02001890YS02001895    1.00   0.01  0.15  0.00  0.84  0.00  0.00  0.00  0.00  0.00
  YS02001895YS02001898    1.00   0.16  0.00  0.00  0.81  0.00  0.03  0.00  0.00  0.00
  YS02001898YS02001901    1.00   0.16  0.00  0.00  0.84  0.00  0.00  0.00  0.01  0.00
  YS02001901YS02001904    1.00   0.16  0.00  0.00  0.84  0.00  0.00  0.00  0.00  0.00
  YS02001904YS02001907    1.00   0.01  0.15  0.00  0.84  0.00  0.00  0.00  0.00  0.00
  YS02001907YS02006553    1.00   0.01  0.05  0.00  0.95  0.00  0.00  0.00  0.00  0.00
  YS02001910YS02001907    1.00   0.00  0.00  0.00  0.94  0.00  0.00  0.05  0.16  0.00
  YS02001915YS02001910    1.00   0.00  0.00  0.00  0.96  0.04  0.00  0.00  0.18  0.00
  YS02001918YS02001915    1.00   0.00  0.01  0.00  0.95  0.03  0.00  0.00  0.64  0.00
  YS02001920YS02001918    1.00   0.00  0.01  0.00  0.99  0.00  0.00  0.00  0.00  0.00
  YS02001923YS02001920    1.00   0.00  0.00  0.00  1.00  0.00  0.00  0.00  0.87  0.00
  YS02001926YS02001923    1.00   0.00  0.11  0.00  0.10  0.00  0.79  0.00  0.00  0.00
  YS02001929YS02001926    1.00   0.00  0.14  0.00  0.86  0.00  0.00  0.00  0.74  0.00
  YS02006553YS02006556    1.00   0.03  0.00  0.00  0.97  0.00  0.00  0.00  0.04  0.00
  YS02006556YS02006558    1.00   0.00  0.01  0.00  0.99  0.00  0.00  0.00  0.00  0.00
  YS02006558YS02006561    1.00   0.18  0.00  0.00  0.11  0.72  0.00  0.00  0.24  0.00
  YS02006561YS02001783    1.00   0.18  0.00  0.00  0.13  0.69  0.00  0.00  0.56  0.00
  YS02163301YS02001633    1.00   0.00  0.15  0.00  0.85  0.00  0.00  0.00  0.00  0.00
  YS02163601YS02164001    1.00   0.00  0.12  0.00  0.88  0.00  0.00  0.00  0.00  0.00
  YS02164001YS02001641    1.00   0.02  0.10  0.00  0.88  0.00  0.00  0.00  0.07  0.00
  YSB1154YSB6556          1.00   0.14  0.00  0.00  0.86  0.00  0.00  0.00  0.02  0.00
  YSB1171HS02004479       1.00   0.07  0.00  0.00  0.91  0.00  0.00  0.02  0.13  0.00
  YSB1174YSB1171          1.00   0.09  0.04  0.00  0.88  0.00  0.00  0.00  0.00  0.00
  YSB6556YSB1171          1.00   0.07  0.07  0.00  0.86  0.00  0.00  0.00  0.00  0.00
  
  
  *************************
  Conduit Surcharge Summary
  *************************
  
  ----------------------------------------------------------------------------
                                                           Hours        Hours 
                         --------- Hours Full --------   Above Full   Capacity
  Conduit                Both Ends  Upstream  Dnstream   Normal Flow   Limited
  ----------------------------------------------------------------------------
  HS02004478WS02006287        0.60      0.60      0.79      0.01         0.01
  HS02004479HS02004480        0.80      0.80      0.82      0.01         0.01
  HS02004480HS02004478        0.71      0.80      0.71      1.83         0.71
  HS02004770HS02004777        0.69      0.69      0.69      0.12         0.08
  HS02004777HS02004785        0.64      0.64      0.69      0.01         0.01
  HS02004785HS02004788        0.62      0.64      0.62      1.67         0.58
  HS02004788HS02004792        0.62      0.62      0.76      0.01         0.01
  HS02004792HS02004799        0.76      0.76      0.90      0.01         0.01
  HS02004799HS02004480        0.80      0.80      0.90      1.03         0.01
  HS02004802HS02004478        0.73      0.73      0.81      0.11         0.01
  HS02004807HS02004802        0.78      0.78      0.80      0.32         0.32
  HS02004817HS02004807        0.78      0.78      1.53      0.01         0.01
  HS02004817HS02004824        0.61      0.61      1.53      0.01         0.01
  HS02004824HS02004830        0.59      0.59      0.61      0.01         0.01
  HS02004830HS02004837        0.56      0.56      0.59      0.01         0.01
  HS02004837HS02004842        0.56      0.56      0.69      0.01         0.01
  HS02004842HS02004848        0.53      0.53      0.69      0.01         0.01
  HS02004848HS02004852        0.53      0.53      0.55      0.02         0.01
  HS02004852HS02004856        0.55      0.55      0.55      0.02         0.01
  HS02004856HS02004862        0.54      0.54      0.55      0.02         0.01
  HS02004862HS02004870        0.53      0.55      0.54      0.25         0.22
  HS02004870HS02004876        0.54      0.54      0.60      0.01         0.01
  HS02004876HS02004881        0.57      0.60      0.57      1.69         0.56
  HS02004881HS02006253        0.57      0.57      2.00      0.01         0.01
  HS02004901HS02004770        0.69      0.69      0.70      0.01         0.01
  WS02003072WS02003073        0.01      0.01      0.01      3.74         0.01
  WS02004401WS02004402        1.85      1.85      1.87      1.68         1.67
  WS02004402WS02004403        1.87      1.87      1.88      1.85         1.83
  WS02004403WS02004404        1.88      1.88      1.98      0.01         0.02
  WS02004404WS02004405        1.94      1.98      1.94      4.55         1.94
  WS02004405WS02004406        1.92      1.94      1.92      2.13         1.92
  WS02004406WS02004407        0.01      0.01      1.92      0.01         0.01
  WS02004407WS02004409        0.01      0.01      1.26      0.01         0.01
  WS02004409WS02004410        1.13      1.26      1.13      1.75         1.13
  WS02004410WS02004411        1.04      1.13      1.04      1.80         1.04
  WS02004411WS02004412        0.94      1.04      0.94      1.84         0.94
  WS02004412WS02004413        0.94      0.94      1.61      0.01         0.01
  WS02004413WS02003067        0.01      0.01      1.61      0.01         0.01
  WS02006109WS02006110        2.11      2.11      3.04      2.11         0.01
  WS02006110WS02006113        1.59      1.59      2.94      0.32         0.01
  WS02006111WS02006112        1.57      1.57      3.56      0.01         0.01
  WS02006112WS02006115        1.75      1.75      2.17      0.01         0.01
  WS02006113WS02006111        1.58      1.59      1.58      1.68         1.58
  WS02006115WS02006116        1.76      1.76      1.77      1.76         1.73
  WS02006116WS02004401        1.84      1.84      1.85      1.83         1.80
  WS02006228WS02006109        2.81      3.04      2.81      4.10         2.81
  WS02006229WS02006228        2.76      2.86      2.76      3.50         2.76
  WS02006230WS02006229        3.23      3.43      3.23      4.77         1.99
  WS02006231WS02006230        2.05      2.05      2.09      4.33         1.21
  WS02006232WS02006231        2.09      2.09      2.82      0.01         0.17
  WS02006234WS02006232        2.42      2.42      2.82      0.01         0.01
  WS02006235WS02006234        2.33      2.33      2.53      4.19         1.18
  WS02006238WS02006235        2.57      2.57      2.79      0.01         0.43
  WS02006239WS02006238        2.63      2.72      2.64      2.04         0.69
  WS02006240WS02006239        2.50      2.53      2.51      2.00         0.59
  WS02006242WS02006240        2.49      2.49      2.87      2.51         1.04
  WS02006243WS02006242        2.54      2.54      2.77      0.01         0.01
  WS02006245WS02006243        2.50      2.52      2.51      0.97         0.58
  WS02006247WS02006245        2.50      2.59      2.50      3.88         0.92
  WS02006248WS02006247        2.48      2.48      2.55      0.01         0.01
  WS02006249WS02006248        2.44      2.44      2.51      2.53         0.01
  WS02006251WS02006249        2.50      2.52      2.51      2.60         2.20
  WS02006252WS02006251        2.85      2.85      2.89      1.63         0.01
  WS02006253WS02006251        2.50      2.50      2.57      0.96         0.03
  WS02006256WS02006235        4.42      4.44      5.97      0.82         0.01
  WS02006280WS02006229        0.96      0.96      1.09      0.01         0.01
  WS02006284WS02006280        0.82      0.82      0.94      0.01         0.01
  WS02006287WS02006284        0.71      0.71      0.84      0.36         0.37
  YS02001580YS02001583        0.74      0.75      0.82      0.01         0.01
  YS02001583YS02001586        0.76      0.76      0.96      0.01         0.01
  YS02001586YS02001590        0.97      0.97      1.06      0.01         0.01
  YS02001590YS02001593        1.06      1.06      1.08      1.11         0.01
  YS02001593YS02001596        1.08      1.08      1.21      0.01         0.01
  YS02001596YS02001600        1.26      1.26      1.39      0.01         0.01
  YS02001600YS02001601        1.49      1.49      1.72      0.01         0.01
  YS02001601YS02001602        1.66      1.66      1.75      1.32         0.01
  YS02001602YS02001605        1.63      1.63      1.66      2.35         0.01
  YS02001605YS02001607        1.61      1.63      1.62      1.63         1.55
  YS02001607YS02001610        1.11      1.11      1.14      0.01         0.01
  YS02001610YS02001613        1.10      1.10      1.14      0.01         0.01
  YS02001613YS02001616        1.05      1.05      1.10      0.01         0.01
  YS02001616YS02001619        1.03      1.03      1.05      0.01         0.02
  YS02001619YS02001622        1.03      1.03      1.03      0.97         0.91
  YS02001622YS02001625        1.03      1.03      1.25      0.01         0.01
  YS02001625YS02001629        0.97      0.97      1.25      0.01         0.01
  YS02001629YS02163301        1.27      1.27      1.29      0.27         0.25
  YS02001633YS02163601        1.40      1.40      1.51      0.51         0.52
  YS02001641YS02001644        1.31      1.36      1.31      1.75         1.30
  YS02001644YS02001647        1.04      1.04      1.31      0.04         0.01
  YS02001647YS02001649        1.04      1.04      1.31      0.01         0.01
  YS02001649YS02001757        1.30      1.31      1.50      0.43         0.39
  YS02001652YS02001649        0.88      0.88      1.31      0.01         0.01
  YS02001655YS02001652        0.37      0.37      0.74      0.01         0.01
  YS02001658YS02001655        0.20      0.20      0.37      0.01         0.01
  YS02001661YS02001658        0.01      0.01      0.20      0.01         0.01
  YS02001664YS02001661        0.01      0.01      0.02      0.01         0.01
  YS02001745YS02001748        0.01      0.01      0.07      0.01         0.01
  YS02001748YS02001751        0.16      0.16      0.25      0.01         0.01
  YS02001751YS02001754        0.25      0.25      0.42      0.01         0.01
  YS02001754YS02001757        0.51      0.51      1.50      0.01         0.01
  YS02001757CaochengTiaoxuchi        1.30      1.50      2.25      0.51         0.28
  YS02001759YS02001757        1.33      1.33      1.50      0.02         0.06
  YS02001762YS02001759        1.16      1.16      1.33      0.01         0.03
  YS02001765YS02001762        1.11      1.11      1.16      0.01         0.01
  YS02001767YS02001765        1.08      1.08      1.11      0.04         0.07
  YS02001770YS02001767        1.06      1.06      1.08      0.64         0.57
  YS02001774YS02001770        0.91      0.91      1.14      0.01         0.01
  YS02001779YS02001774        0.42      0.42      1.14      0.01         0.01
  YS02001783YS02001784        0.72      0.75      0.72      0.82         0.69
  YS02001784YS02001785        0.59      0.72      0.59      1.11         0.59
  YS02001786YS02001788        0.08      0.59      0.08      0.94         0.08
  YS02001788YS02001790        0.08      0.08      0.09      0.01         0.01
  YS02001790YS02001791        0.09      0.09      0.09      0.62         0.01
  YS02001791YS02001793        0.09      0.09      0.12      0.01         0.01
  YS02001793JiankangQianchi        0.11      0.11      0.27      0.01         0.01
  YS02001882YS02001884        0.59      0.59      0.60      0.01         0.01
  YS02001884YS02001887        0.62      0.62      0.64      0.01         0.01
  YS02001887YS02001890        0.65      0.65      0.68      0.14         0.01
  YS02001890YS02001895        0.58      0.58      0.71      0.01         0.01
  YS02001895YS02001898        0.57      0.57      0.58      0.01         0.01
  YS02001898YS02001901        0.58      0.58      0.62      0.01         0.01
  YS02001901YS02001904        0.61      0.61      0.62      0.01         0.01
  YS02001904YS02001907        0.61      0.61      0.91      0.01         0.01
  YS02001907YS02006553        1.12      1.12      1.20      0.01         0.01
  YS02001910YS02001907        0.72      0.72      0.89      0.01         0.01
  YS02001915YS02001910        0.59      0.59      0.72      0.01         0.01
  YS02001918YS02001915        0.50      0.50      0.59      0.01         0.01
  YS02001920YS02001918        0.50      0.50      0.51      0.01         0.01
  YS02001923YS02001920        0.45      0.45      0.51      0.01         0.01
  YS02001926YS02001923        0.06      0.06      0.13      0.01         0.01
  YS02001929YS02001926        0.01      0.01      0.13      0.01         0.01
  YS02006553YS02006556        0.81      0.81      0.91      0.01         0.01
  YS02006556YS02006558        0.86      0.86      0.93      0.01         0.01
  YS02006558YS02006561        0.54      0.79      0.54      1.05         0.54
  YS02006561YS02001783        0.46      0.46      0.75      0.01         0.01
  YS02163301YS02001633        1.29      1.29      1.49      0.01         0.01
  YS02163601YS02164001        1.28      1.28      1.51      0.08         0.01
  YS02164001YS02001641        1.28      1.28      1.36      0.89         0.86
  YSB1154YSB6556              0.86      0.86      1.06      0.01         0.01
  YSB1171HS02004479           0.75      0.75      1.07      0.01         0.01
  YSB1174YSB1171              0.94      0.94      1.40      0.01         0.01
  YSB6556YSB1171              0.86      0.86      1.60      0.01         0.01
  
  
  ***************
  Pumping Summary
  ***************
  
  ---------------------------------------------------------------------------------------------------------
                                                  Min       Avg       Max     Total     Power    % Time Off
                        Percent   Number of      Flow      Flow      Flow    Volume     Usage    Pump Curve
  Pump                 Utilized   Start-Ups       LPS       LPS       LPS  10^6 ltr     Kw-hr    Low   High
  ---------------------------------------------------------------------------------------------------------
  CC-R1                   61.20          10      0.00    583.60    683.00     7.056    125.19    0.0   56.8
  CC-R2                   30.61           7      0.00    632.15    683.00     3.703     68.03    0.0   41.3
  CC-S1                   83.31           6      0.00    167.39    200.00     2.605     16.89    0.0   44.9
  CC-S2                   38.95           9      0.00    164.96    200.00     1.381      9.11    0.0   25.0
  JK-R1                   61.05          11      0.00    291.04   1000.00     3.560     11.50    0.0    0.0
  JK-R2                   33.38           7      0.00    335.54   1000.00     2.283      7.05    0.0    0.0
  JK-S                    61.05           7      0.00     91.26    300.00     1.146     24.87    0.0    0.0
  XR-1                    97.22           1      0.00     95.00     95.00     1.995      8.83    0.0    0.0
  XR-2                    91.92           1      0.00     95.00     95.00     1.886      7.99    0.0    0.0
  XR-3                     0.00           0      0.00      0.00      0.00     0.000      0.00    0.0    0.0
  XR-4                     0.00           0      0.00      0.00      0.00     0.000      0.00    0.0    0.0
  

  Analysis begun on:  Mon Aug 22 16:56:47 2022
  Analysis ended on:  Mon Aug 22 16:56:52 2022
  Total elapsed time: 00:00:05