
  EPA STORM WATER MANAGEMENT MODEL - VERSION 5.1 (Build 5.1.015)
  --------------------------------------------------------------

  WARNING 04: minimum elevation drop used for Conduit WS02004404WS02004405
  WARNING 03: negative offset ignored for Link YS02001904YS02001907
  
  *********************************************************
  NOTE: The summary statistics displayed in this report are
  based on results found at every computational time step,  
  not just on results from each reporting time step.
  *********************************************************
  
  ****************
  Analysis Options
  ****************
  Flow Units ............... LPS
  Process Models:
    Rainfall/Runoff ........ YES
    RDII ................... NO
    Snowmelt ............... NO
    Groundwater ............ NO
    Flow Routing ........... YES
    Ponding Allowed ........ NO
    Water Quality .......... NO
  Infiltration Method ...... HORTON
  Flow Routing Method ...... DYNWAVE
  Surcharge Method ......... EXTRAN
  Starting Date ............ 01/01/2000 00:00:00
  Ending Date .............. 01/01/2000 06:00:00
  Antecedent Dry Days ...... 8.0
  Report Time Step ......... 00:01:00
  Wet Time Step ............ 00:01:00
  Dry Time Step ............ 00:01:00
  Routing Time Step ........ 30.00 sec
  Variable Time Step ....... YES
  Maximum Trials ........... 8
  Number of Threads ........ 4
  Head Tolerance ........... 0.001500 m
  
  
  **************************        Volume         Depth
  Runoff Quantity Continuity     hectare-m            mm
  **************************     ---------       -------
  Total Precipitation ......         5.035        83.123
  Evaporation Loss .........         0.000         0.000
  Infiltration Loss ........         0.248         4.093
  Surface Runoff ...........         4.723        77.961
  Final Storage ............         0.066         1.085
  Continuity Error (%) .....        -0.020
  
  
  **************************        Volume        Volume
  Flow Routing Continuity        hectare-m      10^6 ltr
  **************************     ---------     ---------
  Dry Weather Inflow .......         0.472         4.722
  Wet Weather Inflow .......         4.723        47.230
  Groundwater Inflow .......         0.000         0.000
  RDII Inflow ..............         0.000         0.000
  External Inflow ..........         0.078         0.784
  External Outflow .........         2.593        25.932
  Flooding Loss ............         2.654        26.543
  Evaporation Loss .........         0.000         0.000
  Exfiltration Loss ........         0.000         0.000
  Initial Stored Volume ....         0.303         3.031
  Final Stored Volume ......         0.351         3.508
  Continuity Error (%) .....        -0.389
  
  
  *************************
  Highest Continuity Errors
  *************************
  Node YS02001884 (5.37%)
  Node YS02001583 (-4.17%)
  Node HS02004842 (1.45%)
  
  
  ***************************
  Time-Step Critical Elements
  ***************************
  Link WS02006252WS02006251 (39.03%)
  Link WS02006280WS02006229 (27.45%)
  Link YS02001791YS02001793 (10.35%)
  Link WS02004404WS02004405 (5.88%)
  Link WS02006238WS02006235 (4.16%)
  
  
  ********************************
  Highest Flow Instability Indexes
  ********************************
  Link WS02006113WS02006111 (33)
  Link WS02006238WS02006235 (25)
  Link WS02006229WS02006228 (23)
  Link WS02006111WS02006112 (22)
  Link WS02004404WS02004405 (22)
  
  
  *************************
  Routing Time Step Summary
  *************************
  Minimum Time Step           :     0.50 sec
  Average Time Step           :     1.73 sec
  Maximum Time Step           :    30.00 sec
  Percent in Steady State     :     0.00
  Average Iterations per Step :     3.28
  Percent Not Converging      :     9.06
  Time Step Frequencies       :
     30.000 - 13.228 sec      :     0.02 %
     13.228 -  5.833 sec      :     2.23 %
      5.833 -  2.572 sec      :    16.79 %
      2.572 -  1.134 sec      :    33.42 %
      1.134 -  0.500 sec      :    47.53 %
  
  
  ***************************
  Subcatchment Runoff Summary
  ***************************
  
  ------------------------------------------------------------------------------------------------------------------------------
                            Total      Total      Total      Total     Imperv       Perv      Total       Total     Peak  Runoff
                           Precip      Runon       Evap      Infil     Runoff     Runoff     Runoff      Runoff   Runoff   Coeff
  Subcatchment                 mm         mm         mm         mm         mm         mm         mm    10^6 ltr      LPS
  ------------------------------------------------------------------------------------------------------------------------------
  sub0                      83.12       0.00       0.00       1.03      76.05       4.79      80.84        0.07    41.71   0.973
  sub1                      83.12       0.00       0.00       1.76      72.68       7.38      80.06        0.53   301.19   0.963
  sub10                     83.12       0.00       0.00       1.24      75.14       5.41      80.55        0.89   510.70   0.969
  sub11                     83.12       0.00       0.00       1.22      75.18       5.43      80.61        0.94   559.96   0.970
  sub12                     83.12       0.00       0.00       1.99      71.13       8.82      79.95        0.70   439.37   0.962
  sub14                     83.12       0.00       0.00       1.40      74.34       6.09      80.43        0.77   449.77   0.968
  sub15                     83.12       0.00       0.00       5.45      57.18      19.49      76.67        1.32   713.22   0.922
  sub16                     83.12       0.00       0.00       5.65      54.77      21.79      76.56        0.80   471.48   0.921
  sub17                     83.12       0.00       0.00       5.51      55.58      21.10      76.68        0.66   383.83   0.923
  sub2                      83.12       0.00       0.00       7.78      51.40      22.98      74.38        0.69   316.90   0.895
  sub22                     83.12       0.00       0.00       8.26      46.58      27.49      74.07        4.68  2400.66   0.891
  sub23                     83.12       0.00       0.00       6.74      51.49      24.02      75.51        3.60  1970.37   0.908
  sub3                      83.12       0.00       0.00       8.18      51.33      22.29      73.62        1.66   680.55   0.886
  sub4                      83.12       0.00       0.00       1.96      72.35       7.18      79.54        1.66   742.15   0.957
  sub5                      83.12       0.00       0.00       1.08      75.94       4.74      80.68        0.91   517.70   0.971
  sub60                     83.12       0.00       0.00       1.88      71.92       8.10      80.02        1.05   634.63   0.963
  sub61                     83.12       0.00       0.00       2.72      67.84      11.42      79.25        1.45   881.96   0.953
  sub62                     83.12       0.00       0.00       1.25      75.13       5.40      80.53        2.21  1254.72   0.969
  sub63                     83.12       0.00       0.00       5.01      58.03      19.10      77.12        1.75  1009.38   0.928
  sub64                     83.12       0.00       0.00       2.53      69.38       9.94      79.31        1.91  1033.66   0.954
  sub65                     83.12       0.00       0.00       2.19      70.97       8.61      79.59        2.19  1156.25   0.957
  sub66                     83.12       0.00       0.00       6.19      57.82      17.92      75.74        3.53  1524.21   0.911
  sub67                     83.12       0.00       0.00       1.20      75.21       5.45      80.66        1.50   934.72   0.970
  sub68                     83.12       0.00       0.00       2.25      70.26       9.39      79.65        2.19  1283.73   0.958
  sub69                     83.12       0.00       0.00       2.02      70.45      10.45      80.90        2.99  1536.72   0.973
  sub7                      83.12       0.00       0.00       1.38      74.37       6.11      80.48        0.27   164.77   0.968
  sub70                     83.12       0.00       0.00       6.72      54.56      21.54      76.10        2.20   849.97   0.916
  sub71                     83.12       0.00       0.00       1.28      75.05       5.37      80.42        2.10  1115.96   0.967
  sub72                     83.12       0.00       0.00       1.14      75.75       4.68      80.43        1.11   541.25   0.968
  sub8                      83.12       0.00       0.00       1.39      74.35       6.09      80.44        0.51   304.99   0.968
  sub9                      83.12       0.00       0.00       1.39      74.35       6.09      80.44        0.39   228.31   0.968
  
  
  ******************
  Node Depth Summary
  ******************
  
  ---------------------------------------------------------------------------------
                                 Average  Maximum  Maximum  Time of Max    Reported
                                   Depth    Depth      HGL   Occurrence   Max Depth
  Node                 Type       Meters   Meters   Meters  days hr:min      Meters
  ---------------------------------------------------------------------------------
  HS02004478           JUNCTION     0.28     1.59    10.82     0  01:56        1.58
  HS02004479           JUNCTION     0.36     1.70    10.90     0  01:51        1.66
  HS02004480           JUNCTION     0.33     1.68    10.92     0  01:51        1.64
  HS02004770           JUNCTION     0.31     1.42    11.25     0  01:48        1.42
  HS02004777           JUNCTION     0.33     1.48    11.28     0  01:48        1.45
  HS02004785           JUNCTION     0.24     1.45    11.35     0  01:48        1.35
  HS02004788           JUNCTION     0.21     1.42    11.32     0  01:48        1.35
  HS02004792           JUNCTION     0.27     1.60    11.12     0  01:50        1.60
  HS02004799           JUNCTION     0.40     1.76    10.97     0  01:51        1.76
  HS02004802           JUNCTION     0.36     1.80    10.93     0  01:56        1.80
  HS02004807           JUNCTION     0.34     1.92    11.09     0  01:51        1.92
  HS02004817           JUNCTION     0.64     2.42    11.26     0  01:51        2.41
  HS02004824           JUNCTION     0.23     2.01    11.41     0  01:57        2.01
  HS02004830           JUNCTION     0.23     2.02    11.49     0  01:51        1.98
  HS02004837           JUNCTION     0.20     1.97    11.55     0  01:51        1.91
  HS02004842           JUNCTION     0.50     2.22    11.49     0  01:51        2.22
  HS02004848           JUNCTION     0.18     2.07    11.67     0  01:51        1.90
  HS02004852           JUNCTION     0.19     2.12    11.63     0  01:51        1.96
  HS02004856           JUNCTION     0.23     2.07    11.50     0  01:51        2.02
  HS02004862           JUNCTION     0.20     2.00    11.38     0  01:51        2.00
  HS02004870           JUNCTION     0.20     2.06    11.35     0  01:51        2.01
  HS02004876           JUNCTION     0.25     2.12    11.15     0  01:51        2.10
  HS02004881           JUNCTION     0.18     1.88    10.91     0  01:51        1.85
  HS02004901           JUNCTION     0.32     1.42    11.24     0  01:48        1.42
  WS02001211           JUNCTION     0.66     0.82     5.66     0  02:02        0.82
  WS02001212           JUNCTION     0.40     0.58     5.65     0  02:02        0.58
  WS02001213           JUNCTION     0.63     0.88     5.64     0  02:02        0.88
  WS02003059           JUNCTION     0.69     0.95     5.63     0  02:01        0.95
  WS02003060           JUNCTION     0.41     0.69     5.63     0  02:01        0.69
  WS02003066           JUNCTION     0.24     0.46     6.02     0  02:00        0.46
  WS02003067           JUNCTION     0.56     0.89     6.21     0  02:00        0.89
  WS02003069           JUNCTION     0.46     0.79     5.37     0  02:02        0.79
  WS02003072           JUNCTION     0.52     0.82     5.19     0  02:02        0.82
  WS02003073           JUNCTION     0.31     0.52     4.59     0  02:03        0.52
  WS02004138           JUNCTION     0.14     0.14     7.39     0  00:29        0.14
  WS02004139           JUNCTION     0.59     0.75     5.66     0  02:03        0.75
  WS02004401           JUNCTION     0.86     1.96     7.96     0  02:00        1.96
  WS02004402           JUNCTION     0.88     1.90     7.86     0  02:00        1.89
  WS02004403           JUNCTION     0.88     1.81     7.74     0  02:00        1.81
  WS02004404           JUNCTION     0.94     1.82     7.67     0  02:00        1.81
  WS02004405           JUNCTION     0.93     1.76     7.61     0  02:00        1.76
  WS02004406           JUNCTION     0.91     1.65     7.48     0  02:00        1.64
  WS02004407           JUNCTION     0.31     0.99     7.30     0  02:00        0.99
  WS02004409           JUNCTION     0.61     1.42     7.19     0  02:00        1.42
  WS02004410           JUNCTION     0.60     1.32     7.04     0  02:00        1.32
  WS02004411           JUNCTION     0.60     1.23     6.91     0  02:00        1.22
  WS02004412           JUNCTION     0.60     1.12     6.76     0  02:00        1.12
  WS02004413           JUNCTION     0.74     1.16     6.63     0  02:00        1.15
  WS02006109           JUNCTION     1.13     2.64     9.26     0  01:49        2.64
  WS02006110           JUNCTION     1.05     2.42     9.01     0  02:00        2.42
  WS02006111           JUNCTION     0.52     1.83     8.54     0  01:59        1.83
  WS02006112           JUNCTION     1.10     2.68     8.56     0  00:00        2.48
  WS02006113           JUNCTION     0.60     1.88     8.78     0  02:00        1.88
  WS02006115           JUNCTION     0.80     2.07     8.21     0  02:00        2.07
  WS02006116           JUNCTION     0.86     2.05     8.09     0  02:00        2.05
  WS02006228           JUNCTION     1.20     3.03     9.68     0  01:56        3.03
  WS02006229           JUNCTION     1.22     3.23     9.92     0  01:51        3.22
  WS02006230           JUNCTION     1.14     2.65     9.39     0  01:45        2.65
  WS02006231           JUNCTION     0.86     2.19     9.31     0  02:25        2.19
  WS02006232           JUNCTION     0.95     2.18     9.22     0  01:44        2.18
  WS02006234           JUNCTION     0.83     1.96     9.12     0  01:42        1.96
  WS02006235           JUNCTION     0.85     1.93     9.10     0  01:46        1.93
  WS02006238           JUNCTION     0.87     1.94     9.08     0  02:12        1.93
  WS02006239           JUNCTION     0.81     1.79     9.00     0  01:43        1.78
  WS02006240           JUNCTION     0.75     1.63     8.92     0  02:01        1.62
  WS02006242           JUNCTION     0.79     1.55     8.82     0  01:31        1.55
  WS02006243           JUNCTION     0.67     1.38     8.80     0  01:31        1.36
  WS02006245           JUNCTION     0.65     1.28     8.76     0  01:31        1.26
  WS02006247           JUNCTION     0.66     1.23     8.73     0  01:31        1.22
  WS02006248           JUNCTION     0.60     1.10     8.69     0  01:31        1.10
  WS02006249           JUNCTION     0.62     1.09     8.69     0  01:30        1.09
  WS02006251           JUNCTION     0.76     2.21     9.88     0  01:51        2.16
  WS02006252           JUNCTION     0.54     1.50     9.74     0  01:47        1.50
  WS02006253           JUNCTION     0.86     3.13    10.78     0  01:59        3.13
  WS02006256           JUNCTION     1.19     2.35     9.28     0  00:41        2.35
  WS02006280           JUNCTION     0.36     1.75    10.02     0  01:51        1.73
  WS02006284           JUNCTION     0.61     1.95    10.35     0  01:51        1.94
  WS02006287           JUNCTION     0.35     1.74    10.69     0  01:56        1.73
  WSF200               JUNCTION     0.24     0.53     5.76     0  02:00        0.53
  YS02001580           JUNCTION     0.12     1.05     9.59     0  01:47        0.78
  YS02001583           JUNCTION     0.14     1.14     9.64     0  01:47        0.82
  YS02001586           JUNCTION     0.25     1.13     9.30     0  01:47        1.13
  YS02001590           JUNCTION     0.35     1.40     9.26     0  01:47        1.37
  YS02001593           JUNCTION     0.29     1.36     9.22     0  01:47        1.28
  YS02001596           JUNCTION     0.39     1.70     9.12     0  01:47        1.65
  YS02001600           JUNCTION     0.47     1.87     9.00     0  01:47        1.86
  YS02001601           JUNCTION     0.66     2.06     8.90     0  01:47        2.06
  YS02001602           JUNCTION     0.57     1.87     8.77     0  01:47        1.87
  YS02001605           JUNCTION     0.52     1.78     8.68     0  02:34        1.77
  YS02001607           JUNCTION     0.49     1.65     8.49     0  01:59        1.64
  YS02001610           JUNCTION     0.53     1.68     8.48     0  01:50        1.68
  YS02001613           JUNCTION     0.49     1.66     8.50     0  02:00        1.65
  YS02001616           JUNCTION     0.44     1.61     8.52     0  01:59        1.60
  YS02001619           JUNCTION     0.42     1.61     8.54     0  01:59        1.60
  YS02001622           JUNCTION     0.41     1.58     8.48     0  01:59        1.57
  YS02001625           JUNCTION     0.60     1.78     8.38     0  01:50        1.78
  YS02001629           JUNCTION     0.52     1.85     8.40     0  01:51        1.85
  YS02001633           JUNCTION     0.59     2.01     8.46     0  01:53        1.99
  YS02001641           JUNCTION     0.57     1.95     8.39     0  01:53        1.94
  YS02001644           JUNCTION     0.56     1.92     8.35     0  01:53        1.92
  YS02001647           JUNCTION     0.38     1.75     8.36     0  01:59        1.75
  YS02001649           JUNCTION     0.45     1.99     8.38     0  01:59        1.98
  YS02001652           JUNCTION     0.34     1.84     8.43     0  02:00        1.84
  YS02001655           JUNCTION     0.27     1.72     8.57     0  01:53        1.65
  YS02001658           JUNCTION     0.20     1.65     8.79     0  01:53        1.51
  YS02001661           JUNCTION     0.19     1.21     8.62     0  01:56        1.19
  YS02001664           JUNCTION     0.08     0.65     8.57     0  02:00        0.65
  YS02001745           JUNCTION     0.11     0.88     8.39     0  01:59        0.87
  YS02001748           JUNCTION     0.19     1.67     8.75     0  01:53        1.30
  YS02001751           JUNCTION     0.24     1.63     8.51     0  01:53        1.48
  YS02001754           JUNCTION     0.31     1.73     8.34     0  02:00        1.73
  YS02001757           JUNCTION     0.47     2.06     8.32     0  01:59        2.05
  YS02001759           JUNCTION     0.42     2.05     8.41     0  01:59        2.04
  YS02001762           JUNCTION     0.41     2.02     8.42     0  01:59        2.01
  YS02001765           JUNCTION     0.39     1.98     8.43     0  01:59        1.97
  YS02001767           JUNCTION     0.39     1.95     8.44     0  02:00        1.95
  YS02001770           JUNCTION     0.40     1.95     8.45     0  01:59        1.95
  YS02001774           JUNCTION     0.45     2.00     8.42     0  01:59        2.00
  YS02001779           JUNCTION     0.29     1.68     8.37     0  01:51        1.68
  YS02001783           JUNCTION     0.27     1.25     7.39     0  01:51        1.23
  YS02001784           JUNCTION     0.28     1.13     7.20     0  01:55        1.12
  YS02001786           JUNCTION     0.23     0.88     6.91     0  01:51        0.87
  YS02001788           JUNCTION     0.17     0.62     6.60     0  01:56        0.62
  YS02001790           JUNCTION     0.20     0.73     6.37     0  01:58        0.73
  YS02001791           JUNCTION     0.12     0.44     5.91     0  01:58        0.43
  YS02001793           JUNCTION     0.06     0.30     5.13     0  02:11        0.29
  YS02001882           JUNCTION     0.33     1.65     8.37     0  01:58        1.65
  YS02001884           JUNCTION     0.41     1.76     8.38     0  02:00        1.75
  YS02001887           JUNCTION     0.48     1.83     8.37     0  01:59        1.83
  YS02001890           JUNCTION     0.51     1.81     8.32     0  01:52        1.81
  YS02001895           JUNCTION     0.31     1.57     8.31     0  01:56        1.56
  YS02001898           JUNCTION     0.31     1.56     8.30     0  01:52        1.56
  YS02001901           JUNCTION     0.39     1.68     8.29     0  02:03        1.67
  YS02001904           JUNCTION     0.38     1.64     8.27     0  01:51        1.63
  YS02001907           JUNCTION     0.67     1.96     8.25     0  01:51        1.96
  YS02001910           JUNCTION     0.48     1.97     8.47     0  01:52        1.93
  YS02001915           JUNCTION     0.34     1.90     8.62     0  01:52        1.86
  YS02001918           JUNCTION     0.20     1.81     8.88     0  01:52        1.56
  YS02001920           JUNCTION     0.28     2.10     9.11     0  01:52        1.64
  YS02001923           JUNCTION     0.16     2.03     9.29     0  01:52        1.41
  YS02001926           JUNCTION     0.19     1.90     9.35     0  01:52        1.24
  YS02001929           JUNCTION     0.11     1.78     9.47     0  01:52        1.02
  YS02006553           JUNCTION     0.67     1.98     8.26     0  01:57        1.97
  YS02006556           JUNCTION     0.64     1.96     8.27     0  01:55        1.96
  YS02006558           JUNCTION     0.69     2.01     8.28     0  01:56        2.00
  YS02006561           JUNCTION     0.17     0.93     7.59     0  01:51        0.90
  YS02163301           JUNCTION     0.54     1.91     8.43     0  01:59        1.90
  YS02163601           JUNCTION     0.63     2.03     8.43     0  01:53        2.01
  YS02164001           JUNCTION     0.56     1.95     8.41     0  01:53        1.93
  YSB1154              JUNCTION     0.47     1.98    11.04     0  01:59        1.97
  YSB1171              JUNCTION     0.63     1.95    10.85     0  01:51        1.95
  YSB1174              JUNCTION     0.43     1.82    10.93     0  01:59        1.81
  YSB6556              JUNCTION     0.38     1.77    10.94     0  01:59        1.76
  CC-1                 OUTFALL      0.00     0.00     0.00     0  00:00        0.00
  CC-2                 OUTFALL      0.00     0.00     0.00     0  00:00        0.00
  JK-1                 OUTFALL      0.00     0.00     0.00     0  00:00        0.00
  JK-2                 OUTFALL      0.00     0.00     0.00     0  00:00        0.00
  WSC                  OUTFALL      0.31     0.52     1.19     0  02:03        0.52
  CC-storage           STORAGE      0.96     1.88     7.38     0  02:32        1.88
  JK-storage           STORAGE      2.69     4.22     5.02     0  02:32        4.15
  XR-storage           STORAGE      7.55     8.66     6.66     0  06:00        8.66
  
  
  *******************
  Node Inflow Summary
  *******************
  
  -------------------------------------------------------------------------------------------------
                                  Maximum  Maximum                  Lateral       Total        Flow
                                  Lateral    Total  Time of Max      Inflow      Inflow     Balance
                                   Inflow   Inflow   Occurrence      Volume      Volume       Error
  Node                 Type           LPS      LPS  days hr:min    10^6 ltr    10^6 ltr     Percent
  -------------------------------------------------------------------------------------------------
  HS02004478           JUNCTION      0.00  2305.96     0  01:56           0        10.4      -0.009
  HS02004479           JUNCTION      0.00   416.94     0  01:51           0        1.03       0.061
  HS02004480           JUNCTION      0.00  2077.81     0  01:51           0        7.73       0.025
  HS02004770           JUNCTION   1970.37  1970.37     0  02:00         3.6        3.87       0.075
  HS02004777           JUNCTION      0.03   739.00     0  01:48    0.000648         2.2       0.244
  HS02004785           JUNCTION      0.15   757.40     0  01:48     0.00324         2.2       0.011
  HS02004788           JUNCTION    714.89   873.75     0  02:00        1.35        3.55       0.004
  HS02004792           JUNCTION   2400.94  3274.26     0  02:00        4.69        8.24       0.007
  HS02004799           JUNCTION    449.77  1729.58     0  01:50       0.766        7.06       0.044
  HS02004802           JUNCTION      0.00  1233.48     0  02:05           0        2.92       0.136
  HS02004807           JUNCTION    559.96  1756.21     0  02:00       0.937         3.2       0.131
  HS02004817           JUNCTION      0.60  1197.02     0  02:01       0.013        2.32       0.725
  HS02004824           JUNCTION    742.20  1323.71     0  02:00        1.66        2.57       0.025
  HS02004830           JUNCTION      0.15   585.69     0  01:49     0.00324        1.13       0.101
  HS02004837           JUNCTION    517.05   797.19     0  01:51        1.03        1.51       0.038
  HS02004842           JUNCTION      0.00   797.30     0  01:51           0       0.889       1.473
  HS02004848           JUNCTION    680.55  1058.45     0  01:51        1.66        2.31      -0.045
  HS02004852           JUNCTION      0.00  1027.00     0  01:51           0        2.08      -0.031
  HS02004856           JUNCTION    228.31  1071.51     0  01:51       0.387        2.47       0.045
  HS02004862           JUNCTION    317.10  1166.15     0  01:51       0.698        3.17       0.012
  HS02004870           JUNCTION    304.99  1253.75     0  02:04       0.514        3.66       0.016
  HS02004876           JUNCTION    301.19  1512.29     0  02:02       0.532        4.19       0.014
  HS02004881           JUNCTION    164.77  1665.24     0  02:00       0.271        4.46       0.005
  HS02004901           JUNCTION    471.48   736.12     0  02:00       0.802        1.28       0.138
  WS02001211           JUNCTION      7.35   204.28     0  03:24       0.159        4.02       0.828
  WS02001212           JUNCTION      0.00   209.90     0  03:24           0        3.98       0.395
  WS02001213           JUNCTION      0.00   213.21     0  03:23           0        3.97       0.453
  WS02003059           JUNCTION      0.00   219.75     0  03:23           0        3.96       0.813
  WS02003060           JUNCTION     16.53  1534.41     0  02:01       0.357          14       0.106
  WS02003066           JUNCTION      0.00  1334.74     0  02:00           0        9.72       0.015
  WS02003067           JUNCTION      0.00  1334.37     0  02:00           0        9.72       0.046
  WS02003069           JUNCTION      0.32  1534.37     0  02:01     0.00691          14       0.112
  WS02003072           JUNCTION      0.00  1533.92     0  02:02           0          14       0.150
  WS02003073           JUNCTION      1.82  1535.75     0  02:02      0.0393          14       0.157
  WS02004138           JUNCTION      0.00   190.00     0  00:29           0        3.88       0.084
  WS02004139           JUNCTION      0.32   191.33     0  00:29     0.00693        3.89       0.689
  WS02004401           JUNCTION      0.00  1336.52     0  02:00           0        9.84       0.122
  WS02004402           JUNCTION      0.00  1336.63     0  02:00           0        9.83       0.115
  WS02004403           JUNCTION      0.00  1337.24     0  02:00           0        9.82       0.112
  WS02004404           JUNCTION      0.16  1337.48     0  02:00      0.0035        9.81       0.090
  WS02004405           JUNCTION      0.04  1337.52     0  02:00    0.000823         9.8       0.131
  WS02004406           JUNCTION      0.00  1337.08     0  02:00           0        9.79       0.224
  WS02004407           JUNCTION      0.00  1337.33     0  02:00           0        9.76       0.017
  WS02004409           JUNCTION      0.00  1334.28     0  02:00           0        9.76       0.033
  WS02004410           JUNCTION      0.00  1334.48     0  02:00           0        9.76       0.051
  WS02004411           JUNCTION      0.00  1334.48     0  02:00           0        9.75       0.064
  WS02004412           JUNCTION      0.00  1334.28     0  02:00           0        9.75       0.084
  WS02004413           JUNCTION      0.00  1334.32     0  02:00           0        9.74       0.144
  WS02006109           JUNCTION      1.23  1308.01     0  00:00      0.0266        9.56       0.119
  WS02006110           JUNCTION      0.00  1124.94     0  02:24           0        9.14      -0.382
  WS02006111           JUNCTION      0.00  1176.04     0  00:00           0        9.16      -0.416
  WS02006112           JUNCTION    383.83  2307.30     0  00:00       0.658        9.86       0.001
  WS02006113           JUNCTION      0.00  1125.03     0  02:24           0        9.13      -0.493
  WS02006115           JUNCTION      0.00  2152.75     0  00:00           0        9.84       0.046
  WS02006116           JUNCTION      0.00  1336.14     0  02:00           0        9.84       0.024
  WS02006228           JUNCTION      0.00  1290.12     0  01:56           0        9.51       0.069
  WS02006229           JUNCTION      0.00  2307.13     0  01:56           0        12.6       0.057
  WS02006230           JUNCTION     10.28  1027.01     0  01:56       0.222        5.29       0.064
  WS02006231           JUNCTION      0.00   453.37     0  01:52           0        3.79      -0.052
  WS02006232           JUNCTION      0.00   453.47     0  01:52           0         3.8       0.138
  WS02006234           JUNCTION      0.00   453.21     0  01:52           0        3.79      -0.068
  WS02006235           JUNCTION      0.00   432.46     0  03:17           0        3.91       0.080
  WS02006238           JUNCTION      0.00   419.45     0  03:45           0        3.58      -0.044
  WS02006239           JUNCTION      0.00   419.41     0  03:45           0        3.57      -0.040
  WS02006240           JUNCTION      0.00   419.34     0  03:45           0        3.55      -0.003
  WS02006242           JUNCTION      0.00   419.31     0  03:45           0        3.54       0.047
  WS02006243           JUNCTION      0.00   419.27     0  03:45           0        2.99      -0.020
  WS02006245           JUNCTION      0.00   419.21     0  03:45           0        2.99       0.102
  WS02006247           JUNCTION      0.00   419.16     0  03:45           0        2.99       0.018
  WS02006248           JUNCTION      0.00   419.07     0  03:44           0        3.34       0.021
  WS02006249           JUNCTION      0.00  1378.97     0  02:00           0        7.38       0.031
  WS02006251           JUNCTION      0.08  1707.39     0  02:00     0.00166        7.61      -0.009
  WS02006252           JUNCTION      0.00   729.13     0  02:00           0        3.94      -0.023
  WS02006253           JUNCTION     41.71  1707.00     0  02:00      0.0655        4.54       0.013
  WS02006256           JUNCTION      0.00   300.00     0  01:31           0         2.1      -0.027
  WS02006280           JUNCTION      0.00  2306.18     0  01:56           0        10.4       0.007
  WS02006284           JUNCTION      0.10  2305.78     0  01:57     0.00207        10.4       0.004
  WS02006287           JUNCTION      0.00  2306.18     0  01:56           0        10.4       0.009
  WSF200               JUNCTION      0.00  1334.91     0  02:00           0        9.72       0.008
  YS02001580           JUNCTION      0.00    79.82     0  01:47           0     0.00403       0.702
  YS02001583           JUNCTION      0.00   144.35     0  01:47           0      0.0154      -3.999
  YS02001586           JUNCTION    849.97   850.11     0  02:00         2.2        2.21       0.055
  YS02001590           JUNCTION      0.00   318.08     0  02:10           0         1.6      -0.013
  YS02001593           JUNCTION      0.00   318.02     0  02:30           0         1.6       0.000
  YS02001596           JUNCTION      0.00   318.02     0  02:10           0         1.6      -0.015
  YS02001600           JUNCTION      0.00   318.00     0  02:21           0         1.6       0.011
  YS02001601           JUNCTION   1536.72  1854.19     0  02:00           3        4.59       0.025
  YS02001602           JUNCTION      0.00   507.56     0  01:47           0        2.62       0.029
  YS02001605           JUNCTION      0.00   507.97     0  01:47           0        2.45       0.041
  YS02001607           JUNCTION      0.00   508.20     0  01:47           0        2.45       0.100
  YS02001610           JUNCTION      0.00   847.61     0  02:00           0        2.87       0.096
  YS02001613           JUNCTION      0.00   511.72     0  02:00           0        2.22       0.096
  YS02001616           JUNCTION      0.00   510.97     0  02:00           0        2.22       0.035
  YS02001619           JUNCTION   1524.21  1524.21     0  02:00        3.53        5.33       0.003
  YS02001622           JUNCTION      0.00  1018.32     0  02:00           0        4.91       0.006
  YS02001625           JUNCTION      0.00  1445.67     0  02:00           0        5.28       0.209
  YS02001629           JUNCTION      0.00   917.63     0  01:50           0        3.78       0.013
  YS02001633           JUNCTION   1156.45  1340.38     0  01:50         2.2        5.56       0.070
  YS02001641           JUNCTION      0.00  1333.26     0  01:50           0        5.16       0.060
  YS02001644           JUNCTION   1033.70  1718.16     0  01:51        1.91        7.06       0.052
  YS02001647           JUNCTION      0.00  1720.75     0  01:51           0         6.2       0.008
  YS02001649           JUNCTION      0.00  1867.20     0  01:50           0        7.95       0.003
  YS02001652           JUNCTION      0.00  1024.55     0  02:00           0        1.76      -0.059
  YS02001655           JUNCTION      0.15  1023.80     0  02:00     0.00332        1.75       0.032
  YS02001658           JUNCTION      0.00  1024.28     0  02:00           0        1.75      -0.011
  YS02001661           JUNCTION      0.00  1022.19     0  02:00           0        1.75       0.011
  YS02001664           JUNCTION   1009.38  1009.38     0  02:00        1.75        1.75      -0.006
  YS02001745           JUNCTION    634.63   634.63     0  02:00        1.05        1.05       0.146
  YS02001748           JUNCTION      0.04   642.04     0  02:00    0.000972        1.05      -0.256
  YS02001751           JUNCTION      0.01   642.35     0  02:00    0.000238        1.06       0.082
  YS02001754           JUNCTION      0.26   641.53     0  02:00     0.00562        1.07      -0.119
  YS02001757           JUNCTION      0.00  3125.40     0  01:57           0        12.3       0.019
  YS02001759           JUNCTION    882.00  1324.41     0  02:00        1.46        3.28      -0.010
  YS02001762           JUNCTION      0.00   707.43     0  01:55           0        1.83       0.001
  YS02001765           JUNCTION      0.00   707.45     0  01:55           0        1.83       0.002
  YS02001767           JUNCTION      0.54   708.09     0  01:55      0.0116        1.83      -0.004
  YS02001770           JUNCTION   1254.88  1254.88     0  02:00        2.21        2.26       0.001
  YS02001774           JUNCTION      0.00   811.06     0  02:00           0        0.46       0.206
  YS02001779           JUNCTION      0.01   811.13     0  02:00    0.000108       0.415      -0.191
  YS02001783           JUNCTION      0.00  1165.14     0  01:57           0        4.86       0.007
  YS02001784           JUNCTION      1.06  1166.15     0  01:57      0.0229        4.88       0.011
  YS02001786           JUNCTION      0.06  1166.02     0  01:57     0.00122        4.88       0.016
  YS02001788           JUNCTION      0.07  1166.66     0  01:57     0.00153        4.88       0.008
  YS02001790           JUNCTION      0.15  1177.27     0  01:59     0.00335        4.89       0.028
  YS02001791           JUNCTION      0.00  1290.69     0  01:58           0        4.89      -0.035
  YS02001793           JUNCTION      0.00  1258.47     0  01:58           0        4.89       0.005
  YS02001882           JUNCTION      0.00    37.21     0  01:49           0      0.0129       5.206
  YS02001884           JUNCTION      0.00    61.34     0  01:49           0      0.0488       5.672
  YS02001887           JUNCTION    935.17   935.34     0  02:00        1.51        1.54       0.301
  YS02001890           JUNCTION      0.00   935.15     0  02:00           0         1.5       0.352
  YS02001895           JUNCTION      0.00   517.98     0  02:00           0        1.34       0.144
  YS02001898           JUNCTION      0.00   517.95     0  02:05           0        1.34       0.006
  YS02001901           JUNCTION      0.00   517.91     0  02:00           0        1.34       0.264
  YS02001904           JUNCTION      0.00   517.92     0  02:05           0        1.34       0.214
  YS02001907           JUNCTION      0.00  2293.22     0  02:00           0        4.62       0.397
  YS02001910           JUNCTION      0.00  1663.65     0  02:00           0        3.27       0.226
  YS02001915           JUNCTION   1115.97  1662.92     0  02:00         2.1         3.3       0.052
  YS02001918           JUNCTION      0.00   560.18     0  02:00           0        1.23       0.012
  YS02001920           JUNCTION      2.87   561.00     0  02:00       0.062        1.21       0.082
  YS02001923           JUNCTION      0.04   559.79     0  02:00    0.000814        1.13      -0.034
  YS02001926           JUNCTION      0.05   559.73     0  02:00     0.00113        1.12       0.024
  YS02001929           JUNCTION    541.25   541.25     0  02:00        1.11        1.11      -0.041
  YS02006553           JUNCTION      0.00   796.84     0  02:22           0        2.72       0.447
  YS02006556           JUNCTION      0.00   797.35     0  02:21           0        2.73       0.299
  YS02006558           JUNCTION   1284.61  1284.61     0  02:00        2.21         4.9       0.076
  YS02006561           JUNCTION      0.00  1164.87     0  01:57           0        4.86      -0.003
  YS02163301           JUNCTION      0.00   916.13     0  01:50           0        3.78       0.046
  YS02163601           JUNCTION      0.11  1339.35     0  01:50     0.00238        5.16       0.103
  YS02164001           JUNCTION      0.00  1337.59     0  01:50           0        5.15       0.045
  YSB1154              JUNCTION    517.70   517.70     0  02:00       0.914       0.915       0.167
  YSB1171              JUNCTION      0.00  1193.75     0  02:00           0         1.8       0.362
  YSB1174              JUNCTION    439.37   439.37     0  02:00       0.699       0.699       0.187
  YSB6556              JUNCTION      0.00   517.59     0  02:00           0       0.915       0.129
  CC-1                 OUTFALL       0.00   683.00     0  01:52           0        4.66       0.000
  CC-2                 OUTFALL       0.00   683.00     0  01:57           0        4.47       0.000
  JK-1                 OUTFALL       0.00  1000.00     0  01:39           0        2.84       0.000
  JK-2                 OUTFALL       0.00     0.00     0  00:00           0           0       0.000 ltr
  WSC                  OUTFALL       0.00  1535.64     0  02:03           0          14       0.000
  CC-storage           STORAGE       0.00  3124.12     0  01:57           0        14.5      -0.150
  JK-storage           STORAGE       0.00  1267.30     0  01:56           0        5.04      -0.164
  XR-storage           STORAGE     200.00   200.00     0  00:00        4.32        4.92       0.001
  
  
  **********************
  Node Surcharge Summary
  **********************
  
  Surcharging occurs when water rises above the top of the highest conduit.
  ---------------------------------------------------------------------
                                               Max. Height   Min. Depth
                                   Hours       Above Crown    Below Rim
  Node                 Type      Surcharged         Meters       Meters
  ---------------------------------------------------------------------
  HS02004478           JUNCTION        0.67          0.670        0.270
  HS02004479           JUNCTION        0.82          0.900        0.150
  HS02004480           JUNCTION        0.87          0.967        0.133
  HS02004770           JUNCTION        0.76          0.720        0.000
  HS02004777           JUNCTION        0.76          0.780        0.000
  HS02004785           JUNCTION        0.71          0.752        0.038
  HS02004788           JUNCTION        0.70          0.720        0.000
  HS02004792           JUNCTION        0.83          0.900        0.000
  HS02004799           JUNCTION        0.99          1.060        0.000
  HS02004802           JUNCTION        0.88          1.093        0.117
  HS02004807           JUNCTION        0.86          1.220        0.000
  HS02004817           JUNCTION        1.55          1.716        0.024
  HS02004824           JUNCTION        0.70          1.310        0.000
  HS02004830           JUNCTION        0.66          1.320        0.010
  HS02004837           JUNCTION        0.62          1.273        0.067
  HS02004842           JUNCTION        0.78          1.520        0.000
  HS02004848           JUNCTION        0.58          1.370        0.000
  HS02004852           JUNCTION        0.60          1.420        0.000
  HS02004856           JUNCTION        0.59          1.300        0.000
  HS02004862           JUNCTION        0.63          1.300        0.000
  HS02004870           JUNCTION        0.66          1.362        0.038
  HS02004876           JUNCTION        0.75          1.422        0.138
  HS02004881           JUNCTION        0.73          1.180        0.270
  HS02004901           JUNCTION        0.76          0.720        0.000
  WS02004401           JUNCTION        1.85          0.961        0.699
  WS02004402           JUNCTION        1.87          0.896        0.844
  WS02004403           JUNCTION        1.87          0.814        1.216
  WS02004404           JUNCTION        2.06          0.821        1.959
  WS02004405           JUNCTION        2.01          0.763        2.037
  WS02004406           JUNCTION        1.98          0.646        1.804
  WS02004409           JUNCTION        1.45          0.423        1.937
  WS02004410           JUNCTION        1.32          0.325        2.215
  WS02004411           JUNCTION        1.19          0.230        2.300
  WS02004412           JUNCTION        1.04          0.120        2.190
  WS02004413           JUNCTION        1.64          0.156        2.044
  WS02006109           JUNCTION        2.50          1.820        0.000
  WS02006110           JUNCTION        2.39          1.511        0.339
  WS02006111           JUNCTION        1.61          1.023        0.847
  WS02006112           JUNCTION        2.41          1.680        0.000
  WS02006113           JUNCTION        1.62          1.085        0.845
  WS02006115           JUNCTION        1.81          1.059        1.191
  WS02006116           JUNCTION        1.82          0.993        1.297
  WS02006228           JUNCTION        2.50          2.200        0.000
  WS02006229           JUNCTION        1.26          1.047        0.023
  WS02006230           JUNCTION        2.13          1.570        0.000
  WS02006231           JUNCTION        2.35          1.479        0.051
  WS02006232           JUNCTION        2.42          1.480        0.000
  WS02006234           JUNCTION        2.35          1.240        0.000
  WS02006235           JUNCTION        2.37          1.224        0.066
  WS02006238           JUNCTION        2.38          1.216        0.214
  WS02006239           JUNCTION        2.36          1.050        0.240
  WS02006240           JUNCTION        2.35          0.921        0.469
  WS02006242           JUNCTION        2.36          0.820        0.000
  WS02006243           JUNCTION        2.32          0.666        0.104
  WS02006245           JUNCTION        2.31          0.565        0.285
  WS02006247           JUNCTION        2.32          0.519        0.241
  WS02006248           JUNCTION        2.30          0.380        0.000
  WS02006249           JUNCTION        2.30          0.390        0.000
  WS02006251           JUNCTION        2.27          1.180        0.000
  WS02006252           JUNCTION        2.28          1.100        0.000
  WS02006253           JUNCTION        2.27          2.093        0.387
  WS02006256           JUNCTION        4.74          2.050        0.000
  WS02006280           JUNCTION        1.02          0.700        0.080
  WS02006284           JUNCTION        0.91          0.673        0.127
  WS02006287           JUNCTION        0.79          0.738        0.152
  YS02001580           JUNCTION        0.84          0.450        0.000
  YS02001583           JUNCTION        0.84          0.500        0.000
  YS02001586           JUNCTION        1.03          0.510        0.000
  YS02001590           JUNCTION        1.13          0.747        0.003
  YS02001593           JUNCTION        1.13          0.738        0.102
  YS02001596           JUNCTION        1.28          0.974        0.096
  YS02001600           JUNCTION        1.44          1.190        0.000
  YS02001601           JUNCTION        1.72          1.440        0.000
  YS02001602           JUNCTION        1.63          1.270        0.000
  YS02001605           JUNCTION        1.59          1.178        0.002
  YS02001607           JUNCTION        1.15          0.646        0.034
  YS02001610           JUNCTION        1.19          0.680        0.000
  YS02001613           JUNCTION        1.15          0.664        0.036
  YS02001616           JUNCTION        1.10          0.610        0.000
  YS02001619           JUNCTION        1.08          0.610        0.000
  YS02001622           JUNCTION        1.09          0.580        0.040
  YS02001625           JUNCTION        1.30          0.780        0.000
  YS02001629           JUNCTION        1.02          0.470        0.000
  YS02001633           JUNCTION        1.33          0.987        0.073
  YS02001641           JUNCTION        1.28          0.950        0.150
  YS02001644           JUNCTION        1.26          0.920        0.000
  YS02001647           JUNCTION        1.02          0.755        0.145
  YS02001649           JUNCTION        1.18          0.989        0.061
  YS02001652           JUNCTION        0.96          0.808        0.322
  YS02001655           JUNCTION        0.75          0.721        0.479
  YS02001658           JUNCTION        0.39          0.647        0.653
  YS02001661           JUNCTION        0.08          0.144        1.246
  YS02001748           JUNCTION        0.29          0.591        0.599
  YS02001751           JUNCTION        0.58          0.633        0.567
  YS02001754           JUNCTION        0.87          0.683        0.467
  YS02001757           JUNCTION        1.25          1.055        0.155
  YS02001759           JUNCTION        1.17          1.048        0.162
  YS02001762           JUNCTION        1.14          1.020        0.130
  YS02001765           JUNCTION        1.08          0.979        0.121
  YS02001767           JUNCTION        1.05          0.949        0.081
  YS02001770           JUNCTION        1.01          0.920        0.000
  YS02001774           JUNCTION        1.11          0.999        0.051
  YS02001779           JUNCTION        0.85          0.680        0.000
  YS02001783           JUNCTION        0.71          0.445        1.155
  YS02001784           JUNCTION        0.68          0.329        1.161
  YS02001786           JUNCTION        0.55          0.081        1.349
  YS02001882           JUNCTION        0.64          0.654        0.176
  YS02001884           JUNCTION        0.65          0.700        0.170
  YS02001887           JUNCTION        0.70          0.784        0.166
  YS02001890           JUNCTION        0.71          0.760        0.000
  YS02001895           JUNCTION        0.62          0.567        0.183
  YS02001898           JUNCTION        0.62          0.534        0.206
  YS02001901           JUNCTION        0.68          0.677        0.193
  YS02001904           JUNCTION        0.67          0.638        0.212
  YS02001907           JUNCTION        0.98          0.950        0.000
  YS02001910           JUNCTION        0.74          0.966        0.134
  YS02001915           JUNCTION        0.64          0.901        0.099
  YS02001918           JUNCTION        0.54          0.810        0.000
  YS02001920           JUNCTION        0.55          1.101        0.039
  YS02001923           JUNCTION        0.18          0.820        0.000
  YS02001926           JUNCTION        0.21          0.900        0.000
  YS02001929           JUNCTION        0.01          0.780        0.000
  YS02006553           JUNCTION        1.01          0.980        0.210
  YS02006556           JUNCTION        0.86          0.919        0.431
  YS02006558           JUNCTION        0.84          0.911        0.489
  YS02006561           JUNCTION        0.50          0.128        1.022
  YS02163301           JUNCTION        1.31          0.909        0.121
  YS02163601           JUNCTION        1.37          1.033        0.047
  YS02164001           JUNCTION        1.28          0.952        0.148
  YSB1154              JUNCTION        1.17          1.283        0.117
  YSB1171              JUNCTION        1.17          1.100        0.000
  YSB1174              JUNCTION        1.03          1.121        0.129
  YSB6556              JUNCTION        0.95          1.068        0.032
  
  
  *********************
  Node Flooding Summary
  *********************
  
  Flooding refers to all water that overflows a node, whether it ponds or not.
  --------------------------------------------------------------------------
                                                             Total   Maximum
                                 Maximum   Time of Max       Flood    Ponded
                        Hours       Rate    Occurrence      Volume     Depth
  Node                 Flooded       LPS   days hr:min    10^6 ltr    Meters
  --------------------------------------------------------------------------
  HS02004770              0.52   1545.54      0  02:00       1.187     0.000
  HS02004777              0.01     21.46      0  01:48       0.000     0.000
  HS02004788              0.01    176.01      0  01:48       0.001     0.000
  HS02004792              0.52   2129.79      0  02:00       1.938     0.000
  HS02004799              0.30    288.01      0  02:00       0.164     0.000
  HS02004807              0.19    524.16      0  02:00       0.235     0.000
  HS02004824              0.12    127.74      0  02:00       0.034     0.000
  HS02004842              0.09    172.59      0  01:51       0.020     0.000
  HS02004848              0.01    215.55      0  01:51       0.001     0.000
  HS02004852              0.01    212.48      0  01:51       0.001     0.000
  HS02004856              0.01    134.48      0  01:51       0.000     0.000
  HS02004862              0.08    148.63      0  02:00       0.019     0.000
  HS02004901              0.61    735.68      0  02:00       1.013     0.000
  WS02006109              0.58    335.94      0  02:00       0.387     0.000
  WS02006112              0.01   1153.65      0  00:00       0.035     0.000
  WS02006228              0.01      1.71      0  02:04       0.000     0.000
  WS02006230              0.92    574.15      0  01:56       1.317     0.000
  WS02006232              0.21      0.69      0  01:45       0.000     0.000
  WS02006234              1.02    128.57      0  02:18       0.443     0.000
  WS02006242              1.19    137.39      0  01:48       0.538     0.000
  WS02006248              1.57    340.10      0  01:43       1.715     0.000
  WS02006249              2.24   1318.01      0  02:00       5.405     0.000
  WS02006251              0.01      9.85      0  01:51       0.000     0.000
  WS02006252              0.66    728.60      0  02:00       0.875     0.000
  WS02006256              1.95    253.39      0  01:31       1.233     0.000
  YS02001580              0.01     18.07      0  01:47       0.000     0.000
  YS02001583              0.01     75.23      0  01:47       0.000     0.000
  YS02001586              0.67    532.56      0  02:00       0.602     0.000
  YS02001600              0.01      2.93      0  01:47       0.000     0.000
  YS02001601              0.95   1455.62      0  02:00       1.967     0.000
  YS02001602              0.83     62.01      0  02:20       0.170     0.000
  YS02001610              0.72    847.25      0  02:00       1.062     0.000
  YS02001616              0.01      0.16      0  01:59       0.000     0.000
  YS02001619              0.01      1.30      0  01:59       0.000     0.000
  YS02001625              0.71   1445.64      0  02:00       1.899     0.000
  YS02001629              0.20    125.93      0  02:00       0.040     0.000
  YS02001644              0.32   1533.55      0  02:00       0.848     0.000
  YS02001770              0.01      6.22      0  02:00       0.000     0.000
  YS02001779              0.27    811.11      0  02:00       0.395     0.000
  YS02001890              0.25    417.73      0  02:00       0.160     0.000
  YS02001907              0.48   2292.60      0  02:00       1.899     0.000
  YS02001918              0.01    102.94      0  01:52       0.001     0.000
  YS02001923              0.01     64.18      0  01:52       0.000     0.000
  YS02001926              0.01     43.31      0  01:52       0.000     0.000
  YS02001929              0.01    238.86      0  01:52       0.001     0.000
  YSB1171                 0.40   1193.19      0  02:00       0.957     0.000
  
  
  **********************
  Storage Volume Summary
  **********************
  
  --------------------------------------------------------------------------------------------------
                         Average     Avg  Evap Exfil       Maximum     Max    Time of Max    Maximum
                          Volume    Pcnt  Pcnt  Pcnt        Volume    Pcnt     Occurrence    Outflow
  Storage Unit           1000 m3    Full  Loss  Loss       1000 m3    Full    days hr:min        LPS
  --------------------------------------------------------------------------------------------------
  CC-storage               2.664      42     0     0         5.246      82       0  02:32    1766.00
  JK-storage               0.135      46     0     0         0.212      73       0  02:32    1300.00
  XR-storage               0.906      63     0     0         1.039      72       0  06:00     190.00
  
  
  ***********************
  Outfall Loading Summary
  ***********************
  
  -----------------------------------------------------------
                         Flow       Avg       Max       Total
                         Freq      Flow      Flow      Volume
  Outfall Node           Pcnt       LPS       LPS    10^6 ltr
  -----------------------------------------------------------
  CC-1                  32.96    683.00    683.00       4.661
  CC-2                  31.78    683.00    683.00       4.466
  JK-1                  13.30   1000.00   1000.00       2.840
  JK-2                   0.00      0.00      0.00       0.000
  WSC                   99.99    681.11   1535.64      13.965
  -----------------------------------------------------------
  System                35.61   3047.11   3901.64      25.932
  
  
  ********************
  Link Flow Summary
  ********************
  
  -----------------------------------------------------------------------------
                                 Maximum  Time of Max   Maximum    Max/    Max/
                                  |Flow|   Occurrence   |Veloc|    Full    Full
  Link                 Type          LPS  days hr:min     m/sec    Flow   Depth
  -----------------------------------------------------------------------------
  1                    CONDUIT   1535.64     0  02:03      3.72    0.53    0.52
  HS02004478WS02006287 CONDUIT   2306.18     0  01:56      2.57    0.65    1.00
  HS02004479HS02004480 CONDUIT    418.60     0  01:51      0.60    0.40    1.00
  HS02004480HS02004478 CONDUIT   2073.61     0  01:51      2.96    8.73    1.00
  HS02004770HS02004777 CONDUIT    738.97     0  01:48      1.06    1.35    1.00
  HS02004777HS02004785 CONDUIT    757.25     0  01:48      1.14    0.93    1.00
  HS02004785HS02004788 CONDUIT    621.98     0  01:49      1.35    4.69    1.00
  HS02004788HS02004792 CONDUIT    873.67     0  02:00      1.44    0.58    1.00
  HS02004792HS02004799 CONDUIT   1566.22     0  01:50      2.24    0.96    1.00
  HS02004799HS02004480 CONDUIT   1728.21     0  01:50      2.47    2.18    1.00
  HS02004802HS02004478 CONDUIT   1233.56     0  02:05      1.76    1.09    1.00
  HS02004807HS02004802 CONDUIT   1233.48     0  02:05      1.76    2.36    1.00
  HS02004817HS02004807 CONDUIT   1197.00     0  02:03      1.71    0.71    1.00
  HS02004817HS02004824 CONDUIT   1196.42     0  02:01      1.71    0.54    1.00
  HS02004824HS02004830 CONDUIT    585.54     0  01:49      0.86    0.77    1.00
  HS02004830HS02004837 CONDUIT    596.02     0  01:49      0.94    0.59    1.00
  HS02004837HS02004842 CONDUIT    797.30     0  01:51      1.14    0.48    1.00
  HS02004842HS02004848 CONDUIT    797.52     0  01:51      1.17    0.46    1.00
  HS02004848HS02004852 CONDUIT   1027.00     0  01:51      1.54    1.16    1.00
  HS02004852HS02004856 CONDUIT    976.11     0  01:51      1.44    1.12    1.00
  HS02004856HS02004862 CONDUIT   1047.13     0  01:51      1.66    1.04    1.00
  HS02004862HS02004870 CONDUIT   1024.22     0  02:05      1.73    1.11    1.00
  HS02004870HS02004876 CONDUIT   1253.82     0  02:05      1.79    0.83    1.00
  HS02004876HS02004881 CONDUIT   1512.74     0  02:02      2.21   16.09    1.00
  HS02004881HS02006253 CONDUIT   1665.32     0  02:00      2.38    0.33    1.00
  HS02004901HS02004770 CONDUIT    265.79     0  02:19      0.38    1.00    1.00
  WS02001211WS02001212 CONDUIT    209.90     0  03:24      0.54    0.16    0.70
  WS02001212WS02001213 CONDUIT    213.21     0  03:23      1.04    0.33    0.57
  WS02001213WS02003059 CONDUIT    219.75     0  03:23      0.47    0.36    0.90
  WS02003059WS02003060 CONDUIT    226.17     0  03:22      0.67    0.15    0.82
  WS02003060WS02003069 CONDUIT   1534.05     0  02:01      2.09    0.60    0.62
  WS02003066WSF200     CONDUIT   1334.91     0  02:00      3.26    0.23    0.39
  WS02003067WS02003066 CONDUIT   1334.74     0  02:00      2.03    0.43    0.56
  WS02003069WS02003072 CONDUIT   1533.92     0  02:02      1.91    0.74    0.67
  WS02003072WS02003073 CONDUIT   1533.93     0  02:02      2.07    3.31    0.62
  WS02004138WS02004139 CONDUIT    191.01     0  00:29      2.14    0.04    0.42
  WS02004139WS02001211 CONDUIT    196.94     0  03:24      0.53    0.25    0.61
  WS02004401WS02004402 CONDUIT   1336.63     0  02:00      2.07    1.60    1.00
  WS02004402WS02004403 CONDUIT   1337.24     0  02:00      1.84    1.92    1.00
  WS02004403WS02004404 CONDUIT   1337.32     0  02:00      1.70    0.97    1.00
  WS02004404WS02004405 CONDUIT   1337.49     0  02:00      1.85   13.10    1.00
  WS02004405WS02004406 CONDUIT   1337.08     0  02:00      1.73    2.64    1.00
  WS02004406WS02004407 CONDUIT   1337.33     0  02:00      1.71    0.60    1.00
  WS02004407WS02004409 CONDUIT   1334.28     0  02:00      1.77    0.47    1.00
  WS02004409WS02004410 CONDUIT   1334.48     0  02:00      1.70    1.73    1.00
  WS02004410WS02004411 CONDUIT   1334.48     0  02:00      1.70    1.82    1.00
  WS02004411WS02004412 CONDUIT   1334.28     0  02:00      1.70    1.90    1.00
  WS02004412WS02004413 CONDUIT   1334.32     0  02:00      1.70    0.89    1.00
  WS02004413WS02003067 CONDUIT   1334.37     0  02:00      2.05    0.57    0.77
  WS02006109WS02006110 CONDUIT   1306.78     0  00:00      3.15    2.51    1.00
  WS02006110WS02006113 CONDUIT   1125.03     0  02:24      2.24    1.02    1.00
  WS02006111WS02006112 CONDUIT   2307.30     0  00:00      9.18    1.10    1.00
  WS02006112WS02006115 CONDUIT   2152.75     0  00:00      2.85    1.27    1.00
  WS02006113WS02006111 CONDUIT   1176.04     0  00:00      2.65    1.41    1.00
  WS02006115WS02006116 CONDUIT   1336.14     0  02:00      1.81    1.71    1.00
  WS02006116WS02004401 CONDUIT   1336.52     0  02:00      2.21    1.84    1.00
  WS02006228WS02006109 CONDUIT   1288.84     0  01:56      2.56    5.63    1.00
  WS02006229WS02006228 CONDUIT   1290.12     0  01:56      2.57    4.27    1.00
  WS02006230WS02006229 CONDUIT   1016.73     0  01:56      2.64   22.63    1.00
  WS02006231WS02006230 CONDUIT    453.37     0  01:52      1.30    6.88    1.00
  WS02006232WS02006231 CONDUIT    453.47     0  01:52      1.18    0.95    1.00
  WS02006234WS02006232 CONDUIT    453.21     0  01:52      1.18    0.92    1.00
  WS02006235WS02006234 CONDUIT    432.65     0  03:17      1.12    4.56    1.00
  WS02006238WS02006235 CONDUIT    419.56     0  03:45      1.22    0.94    1.00
  WS02006239WS02006238 CONDUIT    419.45     0  03:45      1.09    1.34    1.00
  WS02006240WS02006239 CONDUIT    419.41     0  03:45      1.09    1.32    1.00
  WS02006242WS02006240 CONDUIT    419.34     0  03:45      1.09    1.67    1.00
  WS02006243WS02006242 CONDUIT    419.31     0  03:45      1.13    0.90    1.00
  WS02006245WS02006243 CONDUIT    419.27     0  03:45      1.13    1.24    1.00
  WS02006247WS02006245 CONDUIT    419.21     0  03:45      1.09    3.32    1.00
  WS02006248WS02006247 CONDUIT    419.16     0  03:45      1.13    0.91    1.00
  WS02006249WS02006248 CONDUIT    419.07     0  03:44      1.09    2.30    1.00
  WS02006251WS02006249 CONDUIT   1378.97     0  02:00      3.58    3.98    1.00
  WS02006252WS02006251 CONDUIT    411.42     0  01:47      3.43    1.51    1.00
  WS02006253WS02006251 CONDUIT   1707.31     0  02:00      4.44    5.12    1.00
  WS02006256WS02006235 CONDUIT    285.79     0  04:14      4.11    3.02    1.00
  WS02006280WS02006229 CONDUIT   2307.13     0  01:56      4.09    0.49    1.00
  WS02006284WS02006280 CONDUIT   2306.18     0  01:56      2.96    0.97    1.00
  WS02006287WS02006284 CONDUIT   2305.68     0  01:57      2.94    1.07    1.00
  WSF200WS02003060     CONDUIT   1334.89     0  02:00      2.30    0.30    0.51
  YS02001580YS02001583 CONDUIT     79.82     0  01:47      0.59    0.31    1.00
  YS02001583YS02001586 CONDUIT    144.35     0  01:47      0.60    0.22    1.00
  YS02001586YS02001590 CONDUIT    318.08     0  02:10      1.25    0.56    1.00
  YS02001590YS02001593 CONDUIT    318.02     0  02:30      1.12    2.00    1.00
  YS02001593YS02001596 CONDUIT    318.02     0  02:10      1.70    0.50    1.00
  YS02001596YS02001600 CONDUIT    318.00     0  02:21      1.25    0.62    1.00
  YS02001600YS02001601 CONDUIT    317.90     0  02:10      1.12    0.55    1.00
  YS02001601YS02001602 CONDUIT    507.56     0  01:47      1.80    1.83    1.00
  YS02001602YS02001605 CONDUIT    507.97     0  01:47      1.80   10.75    1.00
  YS02001605YS02001607 CONDUIT    508.20     0  01:47      1.80    2.79    1.00
  YS02001607YS02001610 CONDUIT    510.84     0  01:46      0.65    0.49    1.00
  YS02001610YS02001613 CONDUIT    511.20     0  02:00      0.65    0.59    1.00
  YS02001613YS02001616 CONDUIT    511.72     0  02:00      0.65    0.44    1.00
  YS02001616YS02001619 CONDUIT    510.97     0  02:00      0.67    0.89    1.00
  YS02001619YS02001622 CONDUIT   1018.32     0  02:00      1.30    1.50    1.00
  YS02001622YS02001625 CONDUIT   1018.71     0  02:00      1.30    0.54    1.00
  YS02001625YS02001629 CONDUIT    917.63     0  01:50      1.17    0.44    1.00
  YS02001629YS02163301 CONDUIT    916.13     0  01:50      1.17    1.13    1.00
  YS02001633YS02163601 CONDUIT   1339.24     0  01:50      1.71    1.41    1.00
  YS02001641YS02001644 CONDUIT   1332.74     0  01:50      1.70    4.31    1.00
  YS02001644YS02001647 CONDUIT   1720.75     0  01:51      2.19    1.01    1.00
  YS02001647YS02001649 CONDUIT   1724.93     0  01:51      2.31    0.91    1.00
  YS02001649YS02001757 CONDUIT   1834.17     0  01:49      2.42    1.11    1.00
  YS02001652YS02001649 CONDUIT   1024.62     0  02:00      1.30    0.51    1.00
  YS02001655YS02001652 CONDUIT   1024.55     0  02:00      1.35    0.50    1.00
  YS02001658YS02001655 CONDUIT   1023.65     0  02:00      1.86    0.43    1.00
  YS02001661YS02001658 CONDUIT   1024.28     0  02:00      2.25    0.40    1.00
  YS02001664YS02001661 CONDUIT   1022.19     0  02:00      2.22    0.32    0.82
  YS02001745YS02001748 CONDUIT    641.99     0  02:00      2.11    0.25    0.94
  YS02001748YS02001751 CONDUIT    642.34     0  02:00      1.63    0.32    1.00
  YS02001751YS02001754 CONDUIT    641.27     0  02:00      1.43    0.31    1.00
  YS02001754YS02001757 CONDUIT    641.88     0  02:00      0.82    0.26    1.00
  YS02001757CaochengTiaoxuchi CONDUIT   3124.12     0  01:57      3.98    1.35    1.00
  YS02001759YS02001757 CONDUIT   1323.68     0  02:00      1.69    0.94    1.00
  YS02001762YS02001759 CONDUIT    707.10     0  01:55      0.90    0.81    1.00
  YS02001765YS02001762 CONDUIT    707.43     0  01:55      0.90    0.66    1.00
  YS02001767YS02001765 CONDUIT    707.45     0  01:55      0.90    0.89    1.00
  YS02001770YS02001767 CONDUIT    707.55     0  01:55      0.90    2.80    1.00
  YS02001774YS02001770 CONDUIT    811.06     0  02:00      1.03    0.52    1.00
  YS02001779YS02001774 CONDUIT    811.12     0  02:00      1.03    0.41    1.00
  YS02001783YS02001784 CONDUIT   1165.09     0  01:57      2.32    1.61    1.00
  YS02001784YS02001785 CONDUIT   1165.96     0  01:57      2.32    2.71    1.00
  YS02001786YS02001788 CONDUIT   1166.59     0  01:57      2.49    2.25    0.89
  YS02001788YS02001790 CONDUIT   1177.11     0  01:59      2.73    0.87    0.84
  YS02001790YS02001791 CONDUIT   1290.69     0  01:58      3.43    1.40    0.71
  YS02001791YS02001793 CONDUIT   1258.47     0  01:58      6.82    0.54    0.45
  YS02001793JiankangQianchi CONDUIT   1267.30     0  01:56      2.54    0.10    0.65
  YS02001882YS02001884 CONDUIT     37.21     0  01:49      0.16    0.04    1.00
  YS02001884YS02001887 CONDUIT     61.34     0  01:49      0.12    0.08    1.00
  YS02001887YS02001890 CONDUIT    935.15     0  02:00      1.19    1.60    1.00
  YS02001890YS02001895 CONDUIT    517.98     0  02:00      0.66    0.24    1.00
  YS02001895YS02001898 CONDUIT    517.95     0  02:05      0.66    0.90    1.00
  YS02001898YS02001901 CONDUIT    517.91     0  02:00      0.66    0.33    1.00
  YS02001901YS02001904 CONDUIT    517.92     0  02:05      0.66    0.80    1.00
  YS02001904YS02001907 CONDUIT    518.06     0  02:01      0.66    0.18    1.00
  YS02001907YS02006553 CONDUIT    796.84     0  02:22      0.89    0.94    1.00
  YS02001910YS02001907 CONDUIT   1663.71     0  02:00      2.12    0.94    1.00
  YS02001915YS02001910 CONDUIT   1663.65     0  02:00      2.12    0.83    1.00
  YS02001918YS02001915 CONDUIT    561.68     0  02:00      0.72    0.31    1.00
  YS02001920YS02001918 CONDUIT    560.18     0  02:00      0.71    0.54    1.00
  YS02001923YS02001920 CONDUIT    558.13     0  02:00      0.71    0.25    1.00
  YS02001926YS02001923 CONDUIT    559.75     0  02:00      0.94    0.80    1.00
  YS02001929YS02001926 CONDUIT    559.68     0  02:00      1.10    0.27    1.00
  YS02006553YS02006556 CONDUIT    797.35     0  02:21      1.02    0.68    1.00
  YS02006556YS02006558 CONDUIT    798.41     0  02:21      1.02    0.63    1.00
  YS02006558YS02006561 CONDUIT   1164.87     0  01:57      4.12    2.57    1.00
  YS02006561YS02001783 CONDUIT   1165.14     0  01:57      2.32    0.60    1.00
  YS02163301YS02001633 CONDUIT    915.42     0  01:50      1.17    0.86    1.00
  YS02163601YS02164001 CONDUIT   1337.59     0  01:50      1.70    1.19    1.00
  YS02164001YS02001641 CONDUIT   1333.26     0  01:50      1.70    1.82    1.00
  YSB1154YSB6556       CONDUIT    517.59     0  02:00      1.34    0.93    1.00
  YSB1171HS02004479    CONDUIT    416.94     0  01:51      0.83    0.28    1.00
  YSB1174YSB1171       CONDUIT    439.40     0  02:00      1.14    0.67    1.00
  YSB6556YSB1171       CONDUIT    518.02     0  02:00      1.35    0.53    1.00
  CC-R1                PUMP       683.00     0  01:52              1.00
  CC-R2                PUMP       683.00     0  01:57              1.00
  CC-S1                PUMP       200.00     0  00:34              1.00
  CC-S2                PUMP       200.00     0  01:47              1.00
  JK-R1                PUMP      1000.00     0  01:39              1.00
  JK-R2                PUMP         0.00     0  00:00              0.00
  JK-S                 PUMP       300.00     0  01:31              1.00
  XR-1                 PUMP        95.00     0  00:10              1.00
  XR-2                 PUMP        95.00     0  00:29              1.00
  XR-3                 PUMP         0.00     0  00:00              0.00
  XR-4                 PUMP         0.00     0  00:00              0.00
  
  
  ***************************
  Flow Classification Summary
  ***************************
  
  -------------------------------------------------------------------------------------
                      Adjusted    ---------- Fraction of Time in Flow Class ---------- 
                       /Actual         Up    Down  Sub   Sup   Up    Down  Norm  Inlet 
  Conduit               Length    Dry  Dry   Dry   Crit  Crit  Crit  Crit  Ltd   Ctrl  
  -------------------------------------------------------------------------------------
  1                       1.00   0.00  0.00  0.00  0.00  1.00  0.00  0.00  0.49  0.00
  HS02004478WS02006287    1.00   0.29  0.00  0.00  0.40  0.31  0.00  0.00  0.44  0.00
  HS02004479HS02004480    1.00   0.01  0.00  0.00  0.99  0.00  0.00  0.00  0.14  0.00
  HS02004480HS02004478    1.00   0.22  0.00  0.00  0.33  0.00  0.00  0.45  0.00  0.00
  HS02004770HS02004777    1.00   0.00  0.20  0.00  0.80  0.00  0.00  0.00  0.03  0.00
  HS02004777HS02004785    1.00   0.00  0.00  0.00  1.00  0.00  0.00  0.00  0.14  0.00
  HS02004785HS02004788    1.00   0.00  0.00  0.00  1.00  0.00  0.00  0.00  0.00  0.00
  HS02004788HS02004792    1.00   0.00  0.00  0.00  1.00  0.00  0.00  0.00  0.83  0.00
  HS02004792HS02004799    1.00   0.00  0.00  0.00  1.00  0.00  0.00  0.00  0.75  0.00
  HS02004799HS02004480    1.00   0.00  0.01  0.00  0.71  0.00  0.28  0.00  0.00  0.00
  HS02004802HS02004478    1.00   0.22  0.02  0.00  0.76  0.00  0.00  0.00  0.03  0.00
  HS02004807HS02004802    1.00   0.21  0.00  0.00  0.73  0.00  0.00  0.06  0.00  0.00
  HS02004817HS02004807    1.00   0.00  0.21  0.00  0.79  0.00  0.00  0.00  0.02  0.00
  HS02004817HS02004824    1.00   0.00  0.00  0.00  1.00  0.00  0.00  0.00  0.71  0.00
  HS02004824HS02004830    1.00   0.00  0.00  0.00  1.00  0.00  0.00  0.00  0.01  0.00
  HS02004830HS02004837    1.00   0.00  0.00  0.00  1.00  0.00  0.00  0.00  0.79  0.00
  HS02004837HS02004842    1.00   0.00  0.00  0.00  1.00  0.00  0.00  0.00  0.14  0.00
  HS02004842HS02004848    1.00   0.00  0.21  0.00  0.79  0.00  0.00  0.00  0.38  0.00
  HS02004848HS02004852    1.00   0.21  0.00  0.00  0.79  0.00  0.00  0.00  0.59  0.00
  HS02004852HS02004856    1.00   0.20  0.03  0.00  0.77  0.00  0.00  0.00  0.52  0.00
  HS02004856HS02004862    1.00   0.00  0.31  0.00  0.69  0.00  0.00  0.00  0.63  0.00
  HS02004862HS02004870    1.00   0.00  0.00  0.00  1.00  0.00  0.00  0.00  0.04  0.00
  HS02004870HS02004876    1.00   0.00  0.00  0.00  1.00  0.00  0.00  0.00  0.77  0.00
  HS02004876HS02004881    1.00   0.00  0.00  0.00  0.77  0.23  0.00  0.00  0.00  0.00
  HS02004881HS02006253    1.00   0.02  0.00  0.00  0.79  0.00  0.00  0.19  0.39  0.00
  HS02004901HS02004770    1.00   0.20  0.00  0.00  0.80  0.00  0.00  0.00  0.00  0.00
  WS02001211WS02001212    1.00   0.00  0.01  0.00  0.99  0.00  0.00  0.00  0.00  0.00
  WS02001212WS02001213    1.00   0.01  0.00  0.00  0.48  0.00  0.51  0.00  0.00  0.00
  WS02001213WS02003059    1.00   0.00  0.00  0.00  1.00  0.00  0.00  0.00  0.00  0.00
  WS02003059WS02003060    1.00   0.00  0.00  0.00  1.00  0.00  0.00  0.00  0.04  0.00
  WS02003060WS02003069    1.00   0.00  0.00  0.00  0.99  0.01  0.00  0.00  0.31  0.00
  WS02003066WSF200        1.00   0.16  0.00  0.00  0.00  0.84  0.00  0.00  0.43  0.00
  WS02003067WS02003066    1.00   0.06  0.08  0.00  0.86  0.00  0.00  0.00  0.00  0.00
  WS02003069WS02003072    1.00   0.00  0.00  0.00  1.00  0.00  0.00  0.00  0.43  0.00
  WS02003072WS02003073    1.00   0.00  0.00  0.00  0.00  0.00  0.00  1.00  0.00  0.00
  WS02004138WS02004139    1.00   0.01  0.00  0.00  0.99  0.00  0.00  0.00  0.97  0.00
  WS02004139WS02001211    1.00   0.00  0.00  0.00  1.00  0.00  0.00  0.00  0.01  0.00
  WS02004401WS02004402    1.00   0.00  0.00  0.00  1.00  0.00  0.00  0.00  0.00  0.00
  WS02004402WS02004403    1.00   0.00  0.00  0.00  1.00  0.00  0.00  0.00  0.00  0.00
  WS02004403WS02004404    1.00   0.00  0.00  0.00  1.00  0.00  0.00  0.00  0.00  0.00
  WS02004404WS02004405    1.00   0.00  0.00  0.00  1.00  0.00  0.00  0.00  0.00  0.00
  WS02004405WS02004406    1.00   0.00  0.00  0.00  1.00  0.00  0.00  0.00  0.00  0.00
  WS02004406WS02004407    1.00   0.00  0.00  0.00  1.00  0.00  0.00  0.00  0.01  0.00
  WS02004407WS02004409    1.00   0.00  0.00  0.00  1.00  0.00  0.00  0.00  0.75  0.00
  WS02004409WS02004410    1.00   0.00  0.00  0.00  1.00  0.00  0.00  0.00  0.05  0.00
  WS02004410WS02004411    1.00   0.00  0.00  0.00  1.00  0.00  0.00  0.00  0.03  0.00
  WS02004411WS02004412    1.00   0.00  0.00  0.00  1.00  0.00  0.00  0.00  0.01  0.00
  WS02004412WS02004413    1.00   0.00  0.00  0.00  1.00  0.00  0.00  0.00  0.02  0.00
  WS02004413WS02003067    1.00   0.01  0.05  0.00  0.00  0.00  0.94  0.00  0.00  0.00
  WS02006109WS02006110    1.00   0.00  0.00  0.00  1.00  0.00  0.00  0.00  0.00  0.00
  WS02006110WS02006113    1.00   0.00  0.00  0.00  1.00  0.00  0.00  0.00  0.00  0.00
  WS02006111WS02006112    1.00   0.00  0.00  0.00  1.00  0.00  0.00  0.00  0.66  0.00
  WS02006112WS02006115    1.00   0.00  0.00  0.00  1.00  0.00  0.00  0.00  0.00  0.00
  WS02006113WS02006111    1.00   0.00  0.00  0.00  0.32  0.68  0.00  0.00  0.11  0.00
  WS02006115WS02006116    1.00   0.00  0.00  0.00  1.00  0.00  0.00  0.00  0.00  0.00
  WS02006116WS02004401    1.00   0.00  0.00  0.00  1.00  0.00  0.00  0.00  0.00  0.00
  WS02006228WS02006109    1.00   0.00  0.00  0.00  1.00  0.00  0.00  0.00  0.00  0.00
  WS02006229WS02006228    1.00   0.00  0.00  0.00  1.00  0.00  0.00  0.00  0.00  0.00
  WS02006230WS02006229    1.00   0.00  0.00  0.00  1.00  0.00  0.00  0.00  0.02  0.00
  WS02006231WS02006230    1.00   0.00  0.00  0.00  0.50  0.00  0.49  0.00  0.00  0.00
  WS02006232WS02006231    1.00   0.00  0.00  0.00  0.98  0.00  0.01  0.00  0.01  0.00
  WS02006234WS02006232    1.00   0.00  0.00  0.00  1.00  0.00  0.00  0.00  0.15  0.00
  WS02006235WS02006234    1.00   0.06  0.00  0.00  0.86  0.00  0.08  0.00  0.00  0.00
  WS02006238WS02006235    1.00   0.05  0.01  0.00  0.93  0.01  0.00  0.00  0.00  0.00
  WS02006239WS02006238    1.00   0.05  0.00  0.00  0.94  0.00  0.00  0.01  0.17  0.00
  WS02006240WS02006239    1.00   0.05  0.00  0.00  0.84  0.00  0.00  0.11  0.00  0.00
  WS02006242WS02006240    1.00   0.02  0.03  0.00  0.94  0.00  0.02  0.00  0.00  0.00
  WS02006243WS02006242    1.00   0.01  0.00  0.00  0.94  0.00  0.00  0.04  0.31  0.00
  WS02006245WS02006243    1.00   0.01  0.00  0.00  0.90  0.00  0.00  0.09  0.00  0.00
  WS02006247WS02006245    1.00   0.01  0.00  0.00  0.95  0.00  0.00  0.04  0.00  0.00
  WS02006248WS02006247    1.00   0.01  0.00  0.00  0.96  0.00  0.00  0.03  0.33  0.00
  WS02006249WS02006248    1.00   0.00  0.01  0.00  0.81  0.00  0.19  0.00  0.00  0.00
  WS02006251WS02006249    1.00   0.00  0.00  0.00  1.00  0.00  0.00  0.00  0.42  0.00
  WS02006252WS02006251    1.00   0.03  0.18  0.00  0.40  0.00  0.39  0.00  0.00  0.00
  WS02006253WS02006251    1.00   0.01  0.01  0.00  0.97  0.00  0.00  0.00  0.00  0.00
  WS02006256WS02006235    1.00   0.06  0.00  0.00  0.93  0.01  0.00  0.00  0.00  0.00
  WS02006280WS02006229    1.00   0.25  0.00  0.00  0.27  0.04  0.00  0.44  0.02  0.00
  WS02006284WS02006280    1.00   0.25  0.00  0.00  0.19  0.03  0.00  0.53  0.00  0.00
  WS02006287WS02006284    1.00   0.13  0.16  0.00  0.31  0.40  0.00  0.00  0.53  0.00
  WSF200WS02003060        1.00   0.00  0.16  0.00  0.39  0.46  0.00  0.00  0.40  0.00
  YS02001580YS02001583    1.00   0.46  0.21  0.00  0.33  0.00  0.00  0.00  0.52  0.00
  YS02001583YS02001586    1.00   0.24  0.37  0.00  0.38  0.00  0.00  0.00  0.52  0.00
  YS02001586YS02001590    1.00   0.20  0.00  0.00  0.62  0.05  0.00  0.13  0.46  0.00
  YS02001590YS02001593    1.00   0.21  0.02  0.00  0.23  0.00  0.55  0.00  0.00  0.00
  YS02001593YS02001596    1.00   0.23  0.00  0.00  0.25  0.01  0.00  0.51  0.03  0.00
  YS02001596YS02001600    1.00   0.23  0.00  0.00  0.34  0.02  0.00  0.41  0.05  0.00
  YS02001600YS02001601    1.00   0.21  0.02  0.00  0.76  0.00  0.00  0.00  0.44  0.00
  YS02001601YS02001602    1.00   0.20  0.02  0.00  0.77  0.00  0.00  0.00  0.00  0.00
  YS02001602YS02001605    1.00   0.23  0.00  0.00  0.77  0.00  0.00  0.00  0.00  0.00
  YS02001605YS02001607    1.00   0.23  0.00  0.00  0.77  0.00  0.00  0.00  0.00  0.00
  YS02001607YS02001610    1.00   0.22  0.02  0.00  0.76  0.00  0.00  0.00  0.01  0.00
  YS02001610YS02001613    1.00   0.21  0.00  0.00  0.79  0.00  0.00  0.00  0.00  0.00
  YS02001613YS02001616    1.00   0.21  0.00  0.00  0.79  0.00  0.00  0.00  0.00  0.00
  YS02001616YS02001619    1.00   0.20  0.00  0.00  0.80  0.00  0.00  0.00  0.00  0.00
  YS02001619YS02001622    1.00   0.20  0.00  0.00  0.80  0.00  0.00  0.00  0.05  0.00
  YS02001622YS02001625    1.00   0.21  0.00  0.00  0.79  0.00  0.00  0.00  0.04  0.00
  YS02001625YS02001629    1.00   0.21  0.13  0.00  0.28  0.00  0.38  0.00  0.00  0.00
  YS02001629YS02163301    1.00   0.27  0.03  0.00  0.70  0.00  0.00  0.00  0.00  0.00
  YS02001633YS02163601    1.00   0.00  0.00  0.00  1.00  0.00  0.00  0.00  0.19  0.00
  YS02001641YS02001644    1.00   0.00  0.00  0.00  1.00  0.00  0.00  0.00  0.00  0.00
  YS02001644YS02001647    1.00   0.00  0.32  0.00  0.68  0.00  0.00  0.00  0.00  0.00
  YS02001647YS02001649    1.00   0.00  0.32  0.00  0.45  0.23  0.00  0.00  0.41  0.00
  YS02001649YS02001757    1.00   0.00  0.00  0.00  0.75  0.25  0.00  0.00  0.42  0.00
  YS02001652YS02001649    1.00   0.00  0.00  0.00  0.91  0.09  0.00  0.00  0.62  0.00
  YS02001655YS02001652    1.00   0.00  0.00  0.00  0.32  0.01  0.00  0.67  0.05  0.00
  YS02001658YS02001655    1.00   0.00  0.24  0.00  0.43  0.32  0.00  0.00  0.50  0.00
  YS02001661YS02001658    1.00   0.24  0.00  0.00  0.29  0.47  0.00  0.00  0.54  0.00
  YS02001664YS02001661    1.00   0.20  0.00  0.00  0.63  0.17  0.00  0.00  0.78  0.00
  YS02001745YS02001748    1.00   0.00  0.00  0.00  0.21  0.00  0.00  0.78  0.06  0.00
  YS02001748YS02001751    1.00   0.00  0.00  0.00  0.68  0.32  0.00  0.00  0.64  0.00
  YS02001751YS02001754    1.00   0.00  0.00  0.00  0.29  0.01  0.00  0.70  0.03  0.00
  YS02001754YS02001757    1.00   0.00  0.00  0.00  1.00  0.00  0.00  0.00  0.70  0.00
  YS02001757CaochengTiaoxuchi    1.00   0.00  0.00  0.00  1.00  0.00  0.00  0.00  0.59  0.00
  YS02001759YS02001757    1.00   0.00  0.00  0.00  0.95  0.05  0.00  0.00  0.54  0.00
  YS02001762YS02001759    1.00   0.00  0.00  0.00  1.00  0.00  0.00  0.00  0.05  0.00
  YS02001765YS02001762    1.00   0.00  0.00  0.00  1.00  0.00  0.00  0.00  0.59  0.00
  YS02001767YS02001765    1.00   0.00  0.00  0.00  1.00  0.00  0.00  0.00  0.00  0.00
  YS02001770YS02001767    1.00   0.00  0.00  0.00  1.00  0.00  0.00  0.00  0.00  0.00
  YS02001774YS02001770    1.00   0.00  0.22  0.00  0.78  0.00  0.00  0.00  0.03  0.00
  YS02001779YS02001774    1.00   0.00  0.00  0.00  1.00  0.00  0.00  0.00  0.64  0.00
  YS02001783YS02001784    1.00   0.00  0.34  0.00  0.66  0.00  0.00  0.00  0.39  0.00
  YS02001784YS02001785    1.00   0.00  0.00  0.00  1.00  0.00  0.00  0.00  0.20  0.00
  YS02001786YS02001788    1.00   0.00  0.00  0.00  0.66  0.34  0.00  0.00  0.00  0.00
  YS02001788YS02001790    1.00   0.00  0.00  0.00  0.41  0.59  0.00  0.00  0.71  0.00
  YS02001790YS02001791    1.00   0.00  0.00  0.00  0.01  0.99  0.00  0.00  0.22  0.00
  YS02001791YS02001793    1.00   0.00  0.00  0.00  0.00  1.00  0.00  0.00  0.01  0.00
  YS02001793JiankangQianchi    1.00   0.00  0.00  0.00  0.93  0.07  0.00  0.00  0.97  0.00
  YS02001882YS02001884    1.00   0.27  0.02  0.00  0.71  0.00  0.00  0.00  0.00  0.00
  YS02001884YS02001887    1.00   0.02  0.14  0.00  0.84  0.00  0.00  0.00  0.00  0.00
  YS02001887YS02001890    1.00   0.00  0.00  0.00  0.99  0.00  0.01  0.00  0.00  0.00
  YS02001890YS02001895    1.00   0.00  0.30  0.00  0.70  0.00  0.00  0.00  0.00  0.00
  YS02001895YS02001898    1.00   0.30  0.01  0.00  0.64  0.00  0.05  0.00  0.00  0.00
  YS02001898YS02001901    1.00   0.31  0.00  0.00  0.69  0.00  0.00  0.00  0.01  0.00
  YS02001901YS02001904    1.00   0.31  0.00  0.00  0.69  0.00  0.00  0.00  0.00  0.00
  YS02001904YS02001907    1.00   0.00  0.30  0.00  0.69  0.00  0.00  0.00  0.00  0.00
  YS02001907YS02006553    1.00   0.00  0.01  0.00  0.99  0.00  0.00  0.00  0.00  0.00
  YS02001910YS02001907    1.00   0.00  0.00  0.00  0.99  0.00  0.00  0.01  0.15  0.00
  YS02001915YS02001910    1.00   0.00  0.00  0.00  0.93  0.07  0.00  0.00  0.17  0.00
  YS02001918YS02001915    1.00   0.00  0.00  0.00  1.00  0.00  0.00  0.00  0.62  0.00
  YS02001920YS02001918    1.00   0.00  0.00  0.00  1.00  0.00  0.00  0.00  0.01  0.00
  YS02001923YS02001920    1.00   0.00  0.00  0.00  1.00  0.00  0.00  0.00  0.87  0.00
  YS02001926YS02001923    1.00   0.00  0.03  0.00  0.10  0.00  0.87  0.00  0.00  0.00
  YS02001929YS02001926    1.00   0.00  0.20  0.00  0.80  0.00  0.00  0.00  0.74  0.00
  YS02006553YS02006556    1.00   0.00  0.00  0.00  1.00  0.00  0.00  0.00  0.04  0.00
  YS02006556YS02006558    1.00   0.00  0.00  0.00  1.00  0.00  0.00  0.00  0.00  0.00
  YS02006558YS02006561    1.00   0.34  0.00  0.00  0.10  0.57  0.00  0.00  0.23  0.00
  YS02006561YS02001783    1.00   0.34  0.00  0.00  0.15  0.51  0.00  0.00  0.54  0.00
  YS02163301YS02001633    1.00   0.00  0.27  0.00  0.73  0.00  0.00  0.00  0.00  0.00
  YS02163601YS02164001    1.00   0.00  0.06  0.00  0.94  0.00  0.00  0.00  0.00  0.00
  YS02164001YS02001641    1.00   0.00  0.06  0.00  0.94  0.00  0.00  0.00  0.07  0.00
  YSB1154YSB6556          1.00   0.20  0.00  0.00  0.80  0.00  0.00  0.00  0.02  0.00
  YSB1171HS02004479       1.00   0.01  0.00  0.00  0.98  0.00  0.00  0.00  0.13  0.00
  YSB1174YSB1171          1.00   0.02  0.08  0.00  0.90  0.00  0.00  0.00  0.00  0.00
  YSB6556YSB1171          1.00   0.01  0.19  0.00  0.80  0.00  0.00  0.00  0.00  0.00
  
  
  *************************
  Conduit Surcharge Summary
  *************************
  
  ----------------------------------------------------------------------------
                                                           Hours        Hours 
                         --------- Hours Full --------   Above Full   Capacity
  Conduit                Both Ends  Upstream  Dnstream   Normal Flow   Limited
  ----------------------------------------------------------------------------
  HS02004478WS02006287        0.67      0.67      0.88      0.01         0.01
  HS02004479HS02004480        0.87      0.87      0.90      0.01         0.01
  HS02004480HS02004478        0.80      0.87      0.80      1.88         0.80
  HS02004770HS02004777        0.76      0.76      0.76      0.13         0.09
  HS02004777HS02004785        0.71      0.71      0.76      0.01         0.01
  HS02004785HS02004788        0.70      0.71      0.70      1.69         0.61
  HS02004788HS02004792        0.70      0.70      0.83      0.01         0.01
  HS02004792HS02004799        0.83      0.83      0.99      0.01         0.01
  HS02004799HS02004480        0.87      0.87      0.99      1.13         0.01
  HS02004802HS02004478        0.81      0.81      0.89      0.20         0.01
  HS02004807HS02004802        0.86      0.86      0.88      0.39         0.39
  HS02004817HS02004807        0.86      0.86      1.55      0.01         0.01
  HS02004817HS02004824        0.70      0.70      1.55      0.01         0.01
  HS02004824HS02004830        0.66      0.66      0.70      0.01         0.01
  HS02004830HS02004837        0.62      0.62      0.66      0.01         0.01
  HS02004837HS02004842        0.62      0.62      0.78      0.01         0.01
  HS02004842HS02004848        0.58      0.58      0.78      0.01         0.01
  HS02004848HS02004852        0.58      0.58      0.60      0.02         0.01
  HS02004852HS02004856        0.60      0.60      0.63      0.01         0.01
  HS02004856HS02004862        0.59      0.59      0.63      0.01         0.01
  HS02004862HS02004870        0.63      0.63      0.66      0.29         0.29
  HS02004870HS02004876        0.66      0.66      0.75      0.01         0.01
  HS02004876HS02004881        0.73      0.75      0.73      1.72         0.72
  HS02004881HS02006253        0.73      0.73      2.27      0.01         0.01
  HS02004901HS02004770        0.76      0.76      0.76      0.09         0.01
  WS02003072WS02003073        0.01      0.01      0.01      2.71         0.01
  WS02004401WS02004402        1.85      1.85      1.87      1.71         1.71
  WS02004402WS02004403        1.87      1.87      1.87      1.85         1.83
  WS02004403WS02004404        1.87      1.87      2.06      0.01         0.03
  WS02004404WS02004405        2.01      2.06      2.01      3.73         2.01
  WS02004405WS02004406        1.98      2.01      1.98      2.38         1.98
  WS02004406WS02004407        0.01      0.01      1.98      0.01         0.01
  WS02004407WS02004409        0.01      0.01      1.45      0.01         0.01
  WS02004409WS02004410        1.32      1.45      1.32      1.80         1.32
  WS02004410WS02004411        1.19      1.32      1.19      1.82         1.19
  WS02004411WS02004412        1.04      1.19      1.04      1.84         1.04
  WS02004412WS02004413        1.04      1.04      1.64      0.01         0.01
  WS02004413WS02003067        0.01      0.01      1.64      0.01         0.01
  WS02006109WS02006110        2.38      2.39      2.53      2.39         0.01
  WS02006110WS02006113        1.62      1.62      2.53      0.38         0.01
  WS02006111WS02006112        1.60      1.61      2.64      0.01         0.01
  WS02006112WS02006115        1.81      1.81      2.40      0.01         0.01
  WS02006113WS02006111        1.61      1.62      1.62      1.70         1.61
  WS02006115WS02006116        1.82      1.82      1.82      1.79         1.78
  WS02006116WS02004401        1.84      1.84      1.85      1.84         1.83
  WS02006228WS02006109        2.50      2.53      2.50      2.76         2.50
  WS02006229WS02006228        2.50      2.51      2.50      2.60         2.50
  WS02006230WS02006229        2.55      2.56      2.55      3.64         1.19
  WS02006231WS02006230        2.13      2.13      2.35      3.39         1.33
  WS02006232WS02006231        2.35      2.35      2.42      0.01         0.20
  WS02006234WS02006232        2.37      2.37      2.42      0.01         0.01
  WS02006235WS02006234        2.35      2.35      2.37      3.24         1.29
  WS02006238WS02006235        2.37      2.37      2.39      0.01         0.53
  WS02006239WS02006238        2.37      2.37      2.38      1.65         0.51
  WS02006240WS02006239        2.35      2.35      2.36      1.63         0.50
  WS02006242WS02006240        2.35      2.35      2.36      1.76         1.22
  WS02006243WS02006242        2.33      2.33      2.36      0.01         0.01
  WS02006245WS02006243        2.31      2.32      2.32      0.49         0.47
  WS02006247WS02006245        2.31      2.32      2.31      2.99         0.77
  WS02006248WS02006247        2.31      2.31      2.32      0.01         0.01
  WS02006249WS02006248        2.29      2.30      2.30      1.51         0.01
  WS02006251WS02006249        2.30      2.30      2.30      2.27         2.26
  WS02006252WS02006251        2.27      2.27      2.28      1.61         0.14
  WS02006253WS02006251        2.29      2.29      2.30      1.04         0.01
  WS02006256WS02006235        3.50      3.51      4.73      0.90         0.01
  WS02006280WS02006229        1.05      1.05      1.26      0.01         0.01
  WS02006284WS02006280        0.91      0.91      1.02      0.01         0.01
  WS02006287WS02006284        0.79      0.79      0.92      0.43         0.43
  YS02001580YS02001583        0.84      0.84      0.91      0.01         0.01
  YS02001583YS02001586        0.84      0.84      1.03      0.01         0.01
  YS02001586YS02001590        1.04      1.04      1.13      0.01         0.01
  YS02001590YS02001593        1.13      1.13      1.16      1.18         0.01
  YS02001593YS02001596        1.15      1.15      1.28      0.01         0.01
  YS02001596YS02001600        1.34      1.34      1.44      0.01         0.01
  YS02001600YS02001601        1.49      1.49      1.72      0.01         0.01
  YS02001601YS02001602        1.63      1.63      1.75      1.43         0.01
  YS02001602YS02001605        1.59      1.59      1.63      2.46         0.01
  YS02001605YS02001607        1.55      1.59      1.55      1.66         1.54
  YS02001607YS02001610        1.15      1.15      1.19      0.01         0.01
  YS02001610YS02001613        1.15      1.15      1.19      0.01         0.01
  YS02001613YS02001616        1.10      1.10      1.15      0.01         0.01
  YS02001616YS02001619        1.08      1.08      1.10      0.01         0.07
  YS02001619YS02001622        1.08      1.08      1.09      1.07         0.94
  YS02001622YS02001625        1.09      1.09      1.30      0.01         0.01
  YS02001625YS02001629        1.02      1.02      1.30      0.01         0.01
  YS02001629YS02163301        1.30      1.30      1.31      0.07         0.11
  YS02001633YS02163601        1.33      1.33      1.37      0.20         0.23
  YS02001641YS02001644        1.26      1.28      1.26      1.78         1.23
  YS02001644YS02001647        1.02      1.02      1.26      0.01         0.01
  YS02001647YS02001649        1.02      1.02      1.18      0.01         0.01
  YS02001649YS02001757        1.18      1.18      1.25      0.08         0.03
  YS02001652YS02001649        0.98      0.98      1.18      0.01         0.01
  YS02001655YS02001652        0.74      0.74      0.95      0.01         0.01
  YS02001658YS02001655        0.39      0.39      0.75      0.01         0.01
  YS02001661YS02001658        0.08      0.08      0.39      0.01         0.01
  YS02001664YS02001661        0.01      0.01      0.16      0.01         0.01
  YS02001745YS02001748        0.01      0.01      0.29      0.01         0.01
  YS02001748YS02001751        0.37      0.37      0.58      0.01         0.01
  YS02001751YS02001754        0.58      0.58      0.87      0.01         0.01
  YS02001754YS02001757        0.92      0.92      1.25      0.01         0.01
  YS02001757CaochengTiaoxuchi        1.25      1.25      1.73      0.41         0.41
  YS02001759YS02001757        1.17      1.17      1.25      0.01         0.01
  YS02001762YS02001759        1.14      1.14      1.17      0.01         0.01
  YS02001765YS02001762        1.08      1.08      1.14      0.01         0.01
  YS02001767YS02001765        1.05      1.05      1.08      0.01         0.02
  YS02001770YS02001767        1.05      1.05      1.05      0.69         0.66
  YS02001774YS02001770        1.01      1.01      1.11      0.01         0.01
  YS02001779YS02001774        0.85      0.85      1.11      0.01         0.01
  YS02001783YS02001784        0.68      0.71      0.68      0.90         0.68
  YS02001784YS02001785        0.55      0.68      0.55      1.24         0.55
  YS02001786YS02001788        0.01      0.55      0.01      1.04         0.01
  YS02001790YS02001791        0.01      0.01      0.01      0.66         0.01
  YS02001793JiankangQianchi        0.01      0.01      5.98      0.01         0.01
  YS02001882YS02001884        0.64      0.64      0.65      0.01         0.01
  YS02001884YS02001887        0.68      0.68      0.70      0.01         0.01
  YS02001887YS02001890        0.71      0.71      0.73      0.17         0.01
  YS02001890YS02001895        0.62      0.62      0.75      0.01         0.01
  YS02001895YS02001898        0.62      0.62      0.62      0.01         0.01
  YS02001898YS02001901        0.63      0.63      0.68      0.01         0.01
  YS02001901YS02001904        0.67      0.67      0.68      0.01         0.01
  YS02001904YS02001907        0.67      0.67      1.02      0.01         0.01
  YS02001907YS02006553        1.24      1.24      1.34      0.01         0.01
  YS02001910YS02001907        0.74      0.74      0.98      0.01         0.01
  YS02001915YS02001910        0.64      0.64      0.74      0.01         0.01
  YS02001918YS02001915        0.54      0.54      0.64      0.01         0.01
  YS02001920YS02001918        0.54      0.54      0.55      0.01         0.01
  YS02001923YS02001920        0.49      0.49      0.55      0.01         0.01
  YS02001926YS02001923        0.18      0.18      0.21      0.01         0.01
  YS02001929YS02001926        0.01      0.01      0.21      0.01         0.01
  YS02006553YS02006556        0.86      0.86      1.01      0.01         0.01
  YS02006556YS02006558        0.93      0.93      1.04      0.01         0.01
  YS02006558YS02006561        0.58      0.84      0.58      1.17         0.58
  YS02006561YS02001783        0.50      0.50      0.71      0.01         0.01
  YS02163301YS02001633        1.31      1.31      1.35      0.01         0.01
  YS02163601YS02164001        1.28      1.28      1.37      0.08         0.01
  YS02164001YS02001641        1.28      1.28      1.28      0.82         0.75
  YSB1154YSB6556              0.95      0.95      1.17      0.01         0.01
  YSB1171HS02004479           0.82      0.82      1.17      0.01         0.01
  YSB1174YSB1171              1.03      1.03      1.50      0.01         0.01
  YSB6556YSB1171              0.95      0.95      1.61      0.01         0.01
  
  
  ***************
  Pumping Summary
  ***************
  
  ---------------------------------------------------------------------------------------------------------
                                                  Min       Avg       Max     Total     Power    % Time Off
                        Percent   Number of      Flow      Flow      Flow    Volume     Usage    Pump Curve
  Pump                 Utilized   Start-Ups       LPS       LPS       LPS  10^6 ltr     Kw-hr    Low   High
  ---------------------------------------------------------------------------------------------------------
  CC-R1                   31.59           1      0.00    683.00    683.00     4.661     89.02    0.0   13.2
  CC-R2                   30.27           1      0.00    683.00    683.00     4.466     85.41    0.0   13.8
  CC-S1                   53.25           1      0.00    200.00    200.00     2.300     14.78    0.0    0.0
  CC-S2                   32.99           1      0.00    200.00    200.00     1.425      8.95    0.0    0.0
  JK-R1                   13.15           5      0.00   1000.00   1000.00     2.840     27.02    0.0    0.0
  JK-R2                    0.00           0      0.00      0.00      0.00     0.000      0.00    0.0    0.0
  JK-S                    32.45           2      0.00    300.00    300.00     2.103     33.82    0.0    0.0
  XR-1                    97.21           1      0.00     95.00     95.00     1.995      8.80    0.0    0.0
  XR-2                    91.94           1      0.00     95.00     95.00     1.887      7.97    0.0    0.0
  XR-3                     0.00           0      0.00      0.00      0.00     0.000      0.00    0.0    0.0
  XR-4                     0.00           0      0.00      0.00      0.00     0.000      0.00    0.0    0.0
  

  Analysis begun on:  Thu Aug 11 14:41:32 2022
  Analysis ended on:  Thu Aug 11 14:41:35 2022
  Total elapsed time: 00:00:03