
  EPA STORM WATER MANAGEMENT MODEL - VERSION 5.1 (Build 5.3.0.dev0)
  --------------------------------------------------------------

  WARNING 04: minimum elevation drop used for Conduit WS02004404WS02004405
  WARNING 03: negative offset ignored for Link YS02001904YS02001907
  
  *********************************************************
  NOTE: The summary statistics displayed in this report are
  based on results found at every computational time step,  
  not just on results from each reporting time step.
  *********************************************************
  
  ****************
  Analysis Options
  ****************
  Flow Units ............... LPS
  Process Models:
    Rainfall/Runoff ........ YES
    RDII ................... NO
    Snowmelt ............... NO
    Groundwater ............ NO
    Flow Routing ........... YES
    Ponding Allowed ........ NO
    Water Quality .......... NO
  Infiltration Method ...... HORTON
  Flow Routing Method ...... DYNWAVE
  Surcharge Method ......... EXTRAN
  Starting Date ............ 01/01/2000 00:00:00
  Ending Date .............. 01/01/2000 06:00:00
  Antecedent Dry Days ...... 8.0
  Report Time Step ......... 00:01:00
  Wet Time Step ............ 00:01:00
  Dry Time Step ............ 00:01:00
  Routing Time Step ........ 30.00 sec
  Variable Time Step ....... YES
  Maximum Trials ........... 8
  Number of Threads ........ 4
  Head Tolerance ........... 0.001500 m
  
  
  **************************        Volume         Depth
  Runoff Quantity Continuity     hectare-m            mm
  **************************     ---------       -------
  Total Precipitation ......         3.287        54.267
  Evaporation Loss .........         0.000         0.000
  Infiltration Loss ........         0.233         3.850
  Surface Runoff ...........         2.990        49.356
  Final Storage ............         0.065         1.072
  Continuity Error (%) .....        -0.020
  
  
  **************************        Volume        Volume
  Flow Routing Continuity        hectare-m      10^6 ltr
  **************************     ---------     ---------
  Dry Weather Inflow .......         0.472         4.722
  Wet Weather Inflow .......         2.990        29.898
  Groundwater Inflow .......         0.000         0.000
  RDII Inflow ..............         0.000         0.000
  External Inflow ..........         0.078         0.784
  External Outflow .........         2.751        27.509
  Flooding Loss ............         1.233        12.332
  Evaporation Loss .........         0.000         0.000
  Exfiltration Loss ........         0.000         0.000
  Initial Stored Volume ....         0.303         3.031
  Final Stored Volume ......         0.172         1.718
  Continuity Error (%) .....        -8.131
  
  
  *************************
  Highest Continuity Errors
  *************************
  Node JK-storage (-53.17%)
  Node CC-storage (-8.18%)
  Node YS02001884 (5.49%)
  Node YS02001583 (-4.63%)
  Node HS02004842 (1.66%)
  
  
  ***************************
  Time-Step Critical Elements
  ***************************
  Link WS02006252WS02006251 (41.48%)
  Link WS02006238WS02006235 (16.09%)
  Link WS02006280WS02006229 (14.78%)
  Link YS02001793JiankangQianchi (10.83%)
  Link WS02003066WSF200 (3.50%)
  
  
  ********************************
  Highest Flow Instability Indexes
  ********************************
  Link WS02006113WS02006111 (39)
  Link WS02004404WS02004405 (22)
  Link WS02006238WS02006235 (20)
  Link WS02006111WS02006112 (19)
  Link WS02006252WS02006251 (18)
  
  
  *************************
  Routing Time Step Summary
  *************************
  Minimum Time Step           :     0.50 sec
  Average Time Step           :     1.61 sec
  Maximum Time Step           :    30.00 sec
  Percent in Steady State     :    -0.00
  Average Iterations per Step :     3.35
  Percent Not Converging      :    12.41
  
  
  ***************************
  Subcatchment Runoff Summary
  ***************************
  
  ------------------------------------------------------------------------------------------------------------------------------
                            Total      Total      Total      Total     Imperv       Perv      Total       Total     Peak  Runoff
                           Precip      Runon       Evap      Infil     Runoff     Runoff     Runoff      Runoff   Runoff   Coeff
  Subcatchment                 mm         mm         mm         mm         mm         mm         mm    10^6 ltr      LPS
  ------------------------------------------------------------------------------------------------------------------------------
  sub0                      54.27       0.00       0.00       0.96      49.21       2.84      52.05        0.04    29.24   0.959
  sub1                      54.27       0.00       0.00       1.64      46.99       4.33      51.32        0.34   208.74   0.946
  sub10                     54.27       0.00       0.00       1.15      48.59       3.19      51.78        0.57   354.72   0.954
  sub11                     54.27       0.00       0.00       1.13      48.63       3.21      51.83        0.60   389.83   0.955
  sub12                     54.27       0.00       0.00       1.85      46.02       5.21      51.23        0.45   306.81   0.944
  sub14                     54.27       0.00       0.00       1.30      48.08       3.59      51.67        0.49   312.67   0.952
  sub15                     54.27       0.00       0.00       5.14      36.98      11.15      48.13        0.83   487.66   0.887
  sub16                     54.27       0.00       0.00       5.29      35.43      12.62      48.06        0.50   324.20   0.886
  sub17                     54.27       0.00       0.00       5.16      35.96      12.21      48.17        0.41   263.81   0.888
  sub2                      54.27       0.00       0.00       7.35      33.23      12.73      45.95        0.43   214.55   0.847
  sub22                     54.27       0.00       0.00       7.80      30.13      15.54      45.67        2.88  1626.20   0.842
  sub23                     54.27       0.00       0.00       6.35      33.31      13.74      47.04        2.24  1343.72   0.867
  sub3                      54.27       0.00       0.00       7.89      33.15      12.10      45.25        1.02   459.88   0.834
  sub4                      54.27       0.00       0.00       1.84      46.68       4.13      50.81        1.06   508.09   0.936
  sub5                      54.27       0.00       0.00       1.01      49.11       2.79      51.90        0.59   359.45   0.956
  sub60                     54.27       0.00       0.00       1.74      46.52       4.77      51.29        0.67   441.51   0.945
  sub61                     54.27       0.00       0.00       2.53      43.88       6.70      50.59        0.93   612.60   0.932
  sub62                     54.27       0.00       0.00       1.16      48.58       3.18      51.77        1.42   871.03   0.954
  sub63                     54.27       0.00       0.00       4.70      37.53      11.04      48.58        1.10   693.85   0.895
  sub64                     54.27       0.00       0.00       2.37      44.85       5.77      50.62        1.22   712.95   0.933
  sub65                     54.27       0.00       0.00       2.05      45.87       5.01      50.88        1.40   797.29   0.938
  sub66                     54.27       0.00       0.00       5.85      37.34       9.89      47.23        2.20  1033.64   0.870
  sub67                     54.27       0.00       0.00       1.11      48.66       3.23      51.89        0.97   653.00   0.956
  sub68                     54.27       0.00       0.00       2.09      45.44       5.51      50.95        1.40   890.30   0.939
  sub69                     54.27       0.00       0.00       1.86      45.93       6.28      52.21        1.93  1061.34   0.962
  sub7                      54.27       0.00       0.00       1.28      48.11       3.61      51.72        0.17   114.81   0.953
  sub70                     54.27       0.00       0.00       6.27      35.52      12.18      47.69        1.38   578.56   0.879
  sub71                     54.27       0.00       0.00       1.19      48.50       3.15      51.66        1.35   772.14   0.952
  sub72                     54.27       0.00       0.00       1.06      48.92       2.74      51.66        0.71   373.31   0.952
  sub8                      54.27       0.00       0.00       1.29      48.09       3.60      51.69        0.33   212.16   0.952
  sub9                      54.27       0.00       0.00       1.29      48.09       3.59      51.68        0.25   158.76   0.952
  
  
  ******************
  Node Depth Summary
  ******************
  
  ---------------------------------------------------------------------------------
                                 Average  Maximum  Maximum  Time of Max    Reported
                                   Depth    Depth      HGL   Occurrence   Max Depth
  Node                 Type       Meters   Meters   Meters  days hr:min      Meters
  ---------------------------------------------------------------------------------
  HS02004478           JUNCTION     0.24     1.58    10.80     0  02:15        1.57
  HS02004479           JUNCTION     0.32     1.69    10.89     0  02:10        1.66
  HS02004480           JUNCTION     0.29     1.66    10.90     0  02:10        1.63
  HS02004770           JUNCTION     0.29     1.42    11.25     0  02:06        1.42
  HS02004777           JUNCTION     0.31     1.48    11.28     0  02:06        1.45
  HS02004785           JUNCTION     0.21     1.49    11.39     0  02:06        1.33
  HS02004788           JUNCTION     0.18     1.42    11.32     0  02:06        1.33
  HS02004792           JUNCTION     0.24     1.60    11.12     0  02:06        1.60
  HS02004799           JUNCTION     0.35     1.76    10.97     0  02:06        1.76
  HS02004802           JUNCTION     0.34     1.78    10.91     0  02:15        1.77
  HS02004807           JUNCTION     0.31     1.89    11.06     0  02:10        1.89
  HS02004817           JUNCTION     0.61     2.38    11.23     0  02:10        2.28
  HS02004824           JUNCTION     0.18     1.96    11.36     0  02:10        1.80
  HS02004830           JUNCTION     0.18     1.99    11.46     0  02:10        1.86
  HS02004837           JUNCTION     0.15     1.95    11.53     0  02:10        1.89
  HS02004842           JUNCTION     0.44     2.22    11.49     0  02:10        2.22
  HS02004848           JUNCTION     0.13     2.01    11.61     0  02:10        2.00
  HS02004852           JUNCTION     0.13     2.06    11.57     0  02:10        2.05
  HS02004856           JUNCTION     0.19     2.07    11.50     0  02:09        2.07
  HS02004862           JUNCTION     0.15     2.00    11.38     0  02:10        2.00
  HS02004870           JUNCTION     0.14     2.07    11.36     0  02:09        1.96
  HS02004876           JUNCTION     0.19     2.09    11.12     0  02:10        2.05
  HS02004881           JUNCTION     0.12     2.11    11.14     0  02:09        1.77
  HS02004901           JUNCTION     0.30     1.42    11.24     0  02:06        1.42
  WS02001211           JUNCTION     0.65     0.81     5.65     0  02:18        0.81
  WS02001212           JUNCTION     0.39     0.57     5.63     0  02:17        0.57
  WS02001213           JUNCTION     0.61     0.87     5.63     0  02:17        0.87
  WS02003059           JUNCTION     0.68     0.93     5.62     0  02:16        0.93
  WS02003060           JUNCTION     0.40     0.68     5.61     0  02:16        0.68
  WS02003066           JUNCTION     0.25     0.45     6.01     0  02:15        0.45
  WS02003067           JUNCTION     0.58     0.89     6.21     0  02:15        0.89
  WS02003069           JUNCTION     0.45     0.77     5.36     0  02:16        0.77
  WS02003072           JUNCTION     0.51     0.81     5.18     0  02:17        0.81
  WS02003073           JUNCTION     0.31     0.51     4.58     0  02:18        0.51
  WS02004138           JUNCTION     0.13     0.14     7.39     0  00:32        0.14
  WS02004139           JUNCTION     0.58     0.74     5.65     0  02:18        0.74
  WS02004401           JUNCTION     0.83     1.83     7.83     0  02:14        1.82
  WS02004402           JUNCTION     0.84     1.77     7.73     0  02:15        1.77
  WS02004403           JUNCTION     0.85     1.70     7.63     0  02:15        1.69
  WS02004404           JUNCTION     0.91     1.71     7.56     0  02:15        1.70
  WS02004405           JUNCTION     0.90     1.66     7.51     0  02:14        1.65
  WS02004406           JUNCTION     0.89     1.55     7.38     0  02:14        1.55
  WS02004407           JUNCTION     0.29     0.91     7.22     0  02:15        0.91
  WS02004409           JUNCTION     0.59     1.37     7.14     0  02:14        1.37
  WS02004410           JUNCTION     0.59     1.29     7.01     0  02:15        1.28
  WS02004411           JUNCTION     0.59     1.20     6.88     0  02:15        1.19
  WS02004412           JUNCTION     0.59     1.10     6.74     0  02:15        1.10
  WS02004413           JUNCTION     0.73     1.14     6.61     0  02:15        1.14
  WS02006109           JUNCTION     1.05     2.64     9.26     0  02:06        2.64
  WS02006110           JUNCTION     0.99     2.38     8.96     0  02:15        2.38
  WS02006111           JUNCTION     0.46     1.71     8.41     0  02:15        1.70
  WS02006112           JUNCTION     1.05     2.68     8.56     0  00:00        2.33
  WS02006113           JUNCTION     0.55     1.80     8.69     0  02:14        1.80
  WS02006115           JUNCTION     0.75     1.93     8.07     0  02:15        1.92
  WS02006116           JUNCTION     0.82     1.92     7.96     0  02:15        1.91
  WS02006228           JUNCTION     1.11     3.03     9.68     0  02:06        3.02
  WS02006229           JUNCTION     1.12     3.22     9.91     0  02:10        3.21
  WS02006230           JUNCTION     1.05     2.65     9.39     0  02:03        2.65
  WS02006231           JUNCTION     0.76     2.19     9.31     0  02:27        2.19
  WS02006232           JUNCTION     0.85     2.18     9.22     0  02:03        2.18
  WS02006234           JUNCTION     0.74     1.96     9.12     0  02:01        1.96
  WS02006235           JUNCTION     0.75     2.00     9.16     0  03:00        1.93
  WS02006238           JUNCTION     0.77     2.04     9.19     0  03:00        1.93
  WS02006239           JUNCTION     0.72     1.96     9.17     0  03:00        1.78
  WS02006240           JUNCTION     0.66     2.10     9.39     0  03:00        1.62
  WS02006242           JUNCTION     0.70     1.55     8.82     0  01:59        1.55
  WS02006243           JUNCTION     0.59     1.48     8.90     0  01:50        1.36
  WS02006245           JUNCTION     0.56     1.52     9.00     0  01:50        1.26
  WS02006247           JUNCTION     0.57     1.45     8.95     0  01:50        1.22
  WS02006248           JUNCTION     0.52     1.10     8.69     0  01:50        1.10
  WS02006249           JUNCTION     0.54     1.09     8.69     0  01:50        1.09
  WS02006251           JUNCTION     0.62     2.21     9.88     0  02:09        2.13
  WS02006252           JUNCTION     0.43     1.50     9.74     0  01:50        1.50
  WS02006253           JUNCTION     0.71     3.42    11.06     0  02:09        2.98
  WS02006256           JUNCTION     1.05     2.35     9.28     0  00:15        2.35
  WS02006280           JUNCTION     0.32     1.73    10.01     0  02:14        1.73
  WS02006284           JUNCTION     0.58     1.94    10.34     0  02:15        1.93
  WS02006287           JUNCTION     0.31     1.73    10.69     0  02:15        1.72
  WSF200               JUNCTION     0.25     0.52     5.75     0  02:15        0.52
  YS02001580           JUNCTION     0.10     1.05     9.59     0  02:06        0.77
  YS02001583           JUNCTION     0.13     1.14     9.64     0  02:06        0.82
  YS02001586           JUNCTION     0.22     1.13     9.30     0  02:06        1.13
  YS02001590           JUNCTION     0.32     1.40     9.26     0  02:06        1.37
  YS02001593           JUNCTION     0.25     1.33     9.20     0  02:06        1.28
  YS02001596           JUNCTION     0.33     1.69     9.10     0  02:06        1.65
  YS02001600           JUNCTION     0.41     1.87     9.00     0  02:06        1.86
  YS02001601           JUNCTION     0.61     2.06     8.90     0  02:05        2.06
  YS02001602           JUNCTION     0.52     1.87     8.77     0  02:05        1.87
  YS02001605           JUNCTION     0.48     1.78     8.68     0  02:05        1.77
  YS02001607           JUNCTION     0.47     1.65     8.50     0  02:05        1.64
  YS02001610           JUNCTION     0.51     1.68     8.48     0  02:05        1.68
  YS02001613           JUNCTION     0.47     1.68     8.52     0  02:05        1.65
  YS02001616           JUNCTION     0.41     1.61     8.52     0  02:05        1.59
  YS02001619           JUNCTION     0.38     1.60     8.52     0  02:05        1.57
  YS02001622           JUNCTION     0.37     1.56     8.46     0  02:14        1.55
  YS02001625           JUNCTION     0.62     1.78     8.38     0  02:09        1.78
  YS02001629           JUNCTION     0.50     1.85     8.40     0  02:05        1.85
  YS02001633           JUNCTION     0.58     2.01     8.46     0  02:11        1.99
  YS02001641           JUNCTION     0.55     1.95     8.38     0  02:12        1.94
  YS02001644           JUNCTION     0.55     1.92     8.35     0  02:12        1.92
  YS02001647           JUNCTION     0.34     1.73     8.34     0  02:12        1.69
  YS02001649           JUNCTION     0.43     1.89     8.28     0  02:13        1.85
  YS02001652           JUNCTION     0.30     1.75     8.34     0  02:12        1.68
  YS02001655           JUNCTION     0.20     1.73     8.58     0  02:12        1.46
  YS02001658           JUNCTION     0.13     1.65     8.79     0  02:12        1.21
  YS02001661           JUNCTION     0.15     1.05     8.46     0  02:13        0.99
  YS02001664           JUNCTION     0.06     0.47     8.40     0  02:13        0.42
  YS02001745           JUNCTION     0.06     0.69     8.21     0  02:13        0.68
  YS02001748           JUNCTION     0.13     1.46     8.53     0  02:12        1.07
  YS02001751           JUNCTION     0.17     1.46     8.34     0  02:12        1.26
  YS02001754           JUNCTION     0.27     1.63     8.23     0  02:13        1.52
  YS02001757           JUNCTION     0.47     1.91     8.17     0  02:13        1.85
  YS02001759           JUNCTION     0.41     1.89     8.26     0  02:13        1.86
  YS02001762           JUNCTION     0.39     1.89     8.29     0  02:13        1.85
  YS02001765           JUNCTION     0.37     1.87     8.32     0  02:13        1.83
  YS02001767           JUNCTION     0.35     1.86     8.35     0  02:13        1.83
  YS02001770           JUNCTION     0.36     1.90     8.40     0  02:12        1.88
  YS02001774           JUNCTION     0.42     1.97     8.39     0  02:12        1.95
  YS02001779           JUNCTION     0.24     1.68     8.37     0  02:10        1.68
  YS02001783           JUNCTION     0.26     1.30     7.44     0  02:09        1.22
  YS02001784           JUNCTION     0.27     1.15     7.22     0  02:09        1.11
  YS02001786           JUNCTION     0.23     0.90     6.93     0  02:09        0.87
  YS02001788           JUNCTION     0.16     0.62     6.60     0  02:15        0.62
  YS02001790           JUNCTION     0.20     0.72     6.37     0  02:19        0.72
  YS02001791           JUNCTION     0.13     0.67     6.14     0  02:55        0.65
  YS02001793           JUNCTION     0.11     1.42     6.25     0  02:49        1.26
  YS02001882           JUNCTION     0.32     1.68     8.40     0  02:09        1.63
  YS02001884           JUNCTION     0.41     1.77     8.39     0  02:09        1.73
  YS02001887           JUNCTION     0.48     1.82     8.36     0  02:09        1.81
  YS02001890           JUNCTION     0.51     1.81     8.32     0  02:09        1.81
  YS02001895           JUNCTION     0.29     1.57     8.32     0  02:09        1.56
  YS02001898           JUNCTION     0.30     1.57     8.31     0  02:09        1.56
  YS02001901           JUNCTION     0.41     1.68     8.29     0  02:09        1.67
  YS02001904           JUNCTION     0.39     1.64     8.27     0  02:09        1.63
  YS02001907           JUNCTION     0.70     1.96     8.25     0  02:09        1.96
  YS02001910           JUNCTION     0.50     2.01     8.51     0  02:10        1.84
  YS02001915           JUNCTION     0.32     1.95     8.67     0  02:10        1.70
  YS02001918           JUNCTION     0.18     1.81     8.88     0  02:10        1.38
  YS02001920           JUNCTION     0.26     2.14     9.15     0  02:10        1.46
  YS02001923           JUNCTION     0.13     2.03     9.29     0  02:10        1.22
  YS02001926           JUNCTION     0.17     1.90     9.35     0  02:10        1.05
  YS02001929           JUNCTION     0.09     1.78     9.47     0  02:10        0.81
  YS02006553           JUNCTION     0.70     1.99     8.27     0  02:09        1.97
  YS02006556           JUNCTION     0.67     1.98     8.29     0  02:09        1.94
  YS02006558           JUNCTION     0.72     2.02     8.29     0  02:09        1.98
  YS02006561           JUNCTION     0.16     1.03     7.69     0  02:09        0.89
  YS02163301           JUNCTION     0.52     1.92     8.43     0  02:11        1.90
  YS02163601           JUNCTION     0.61     2.03     8.42     0  02:11        2.00
  YS02164001           JUNCTION     0.54     1.94     8.40     0  02:12        1.93
  YSB1154              JUNCTION     0.46     1.94    11.00     0  02:06        1.88
  YSB1171              JUNCTION     0.60     1.95    10.85     0  02:06        1.95
  YSB1174              JUNCTION     0.41     1.82    10.93     0  02:06        1.78
  YSB6556              JUNCTION     0.36     1.79    10.96     0  02:06        1.72
  CC-1                 OUTFALL      0.00     0.00     0.00     0  00:00        0.00
  CC-2                 OUTFALL      0.00     0.00     0.00     0  00:00        0.00
  JK-1                 OUTFALL      0.00     0.00     0.00     0  00:00        0.00
  JK-2                 OUTFALL      0.00     0.00     0.00     0  00:00        0.00
  WSC                  OUTFALL      0.31     0.51     1.18     0  02:18        0.51
  CC-storage           STORAGE      0.67     1.82     7.32     0  02:40        1.82
  JK-storage           STORAGE      0.33     5.29     6.09     0  02:56        5.29
  XR-storage           STORAGE      7.77     8.66     6.66     0  06:00        8.66
  
  
  *******************
  Node Inflow Summary
  *******************
  
  -------------------------------------------------------------------------------------------------
                                  Maximum  Maximum                  Lateral       Total        Flow
                                  Lateral    Total  Time of Max      Inflow      Inflow     Balance
                                   Inflow   Inflow   Occurrence      Volume      Volume       Error
  Node                 Type           LPS      LPS  days hr:min    10^6 ltr    10^6 ltr     Percent
  -------------------------------------------------------------------------------------------------
  HS02004478           JUNCTION      0.00  2295.13     0  02:15           0        7.63      -0.012
  HS02004479           JUNCTION      0.00   407.60     0  02:09           0       0.731       0.118
  HS02004480           JUNCTION      0.00  2096.07     0  02:08           0         5.8       0.047
  HS02004770           JUNCTION   1343.72  1343.72     0  02:15        2.24        2.46       0.130
  HS02004777           JUNCTION      0.03   755.71     0  02:06    0.000648        1.71       0.308
  HS02004785           JUNCTION      0.15   760.29     0  02:06     0.00324        1.71       0.025
  HS02004788           JUNCTION    489.33   857.12     0  02:06       0.864        2.57       0.010
  HS02004792           JUNCTION   1626.48  2403.37     0  02:15        2.89        5.46       0.012
  HS02004799           JUNCTION    312.67  1733.77     0  02:07       0.492        5.15       0.055
  HS02004802           JUNCTION      0.00  1142.01     0  02:15           0        1.89       0.217
  HS02004807           JUNCTION    389.83  1140.71     0  02:15       0.602        1.95       0.222
  HS02004817           JUNCTION      0.60   754.16     0  02:15       0.013        1.41       1.196
  HS02004824           JUNCTION    508.14   752.61     0  02:15        1.06        1.63       0.039
  HS02004830           JUNCTION      0.15   626.31     0  02:07     0.00324       0.796       0.156
  HS02004837           JUNCTION    361.07   829.20     0  02:07       0.708        1.14       0.063
  HS02004842           JUNCTION      0.00   829.19     0  02:07           0       0.785       1.688
  HS02004848           JUNCTION    459.88  1051.80     0  02:07        1.02        1.65      -0.001
  HS02004852           JUNCTION      0.00  1028.64     0  02:09           0        1.51       0.001
  HS02004856           JUNCTION    158.76  1100.69     0  02:09       0.249        1.76       0.065
  HS02004862           JUNCTION    214.75  1185.02     0  02:09       0.433        2.19       0.010
  HS02004870           JUNCTION    212.16  1311.74     0  02:09        0.33        2.52       0.011
  HS02004876           JUNCTION    208.74  1374.39     0  02:15       0.341        2.86       0.033
  HS02004881           JUNCTION    114.81  1489.23     0  02:15       0.174        3.03       0.010
  HS02004901           JUNCTION    324.20   582.14     0  02:15       0.503       0.778       0.239
  WS02001211           JUNCTION      7.35   204.40     0  02:50       0.159        4.02       0.829
  WS02001212           JUNCTION      0.00   211.32     0  02:50           0        3.98       0.390
  WS02001213           JUNCTION      0.00   216.42     0  02:49           0        3.97       0.461
  WS02003059           JUNCTION      0.00   221.79     0  02:49           0        3.96       0.820
  WS02003060           JUNCTION     16.53  1494.51     0  02:16       0.357        12.6       0.124
  WS02003066           JUNCTION      0.00  1291.31     0  02:15           0         8.3       0.023
  WS02003067           JUNCTION      0.00  1290.94     0  02:15           0        8.31       0.058
  WS02003069           JUNCTION      0.32  1494.44     0  02:16     0.00691        12.6       0.130
  WS02003072           JUNCTION      0.00  1494.13     0  02:17           0        12.6       0.174
  WS02003073           JUNCTION      1.82  1495.90     0  02:17      0.0393        12.6       0.183
  WS02004138           JUNCTION      0.00   190.00     0  00:28           0        3.88       0.084
  WS02004139           JUNCTION      0.32   190.32     0  00:32     0.00693        3.89       0.692
  WS02004401           JUNCTION      0.00  1292.03     0  02:15           0        8.44       0.153
  WS02004402           JUNCTION      0.00  1292.52     0  02:15           0        8.43       0.146
  WS02004403           JUNCTION      0.00  1292.16     0  02:15           0        8.42       0.141
  WS02004404           JUNCTION      0.16  1293.22     0  02:15      0.0035        8.41       0.119
  WS02004405           JUNCTION      0.04  1292.52     0  02:15    0.000823         8.4       0.160
  WS02004406           JUNCTION      0.00  1292.50     0  02:15           0        8.38       0.278
  WS02004407           JUNCTION      0.00  1292.63     0  02:15           0        8.36       0.026
  WS02004409           JUNCTION      0.00  1290.64     0  02:15           0        8.35       0.057
  WS02004410           JUNCTION      0.00  1290.97     0  02:15           0        8.35       0.076
  WS02004411           JUNCTION      0.00  1290.97     0  02:15           0        8.34       0.089
  WS02004412           JUNCTION      0.00  1291.03     0  02:15           0        8.33       0.114
  WS02004413           JUNCTION      0.00  1290.88     0  02:15           0        8.32       0.189
  WS02006109           JUNCTION      1.23  1308.01     0  00:00      0.0266        8.21       0.080
  WS02006110           JUNCTION      0.00  1120.80     0  02:28           0        7.98      -0.422
  WS02006111           JUNCTION      0.00  1176.04     0  00:00           0        8.01      -0.469
  WS02006112           JUNCTION    263.81  2307.30     0  00:00       0.413        8.46       0.010
  WS02006113           JUNCTION      0.00  1120.88     0  02:28           0        7.97      -0.551
  WS02006115           JUNCTION      0.00  2152.75     0  00:00           0        8.44       0.069
  WS02006116           JUNCTION      0.00  1292.49     0  02:15           0        8.44       0.033
  WS02006228           JUNCTION      0.00  1284.00     0  02:15           0        8.16       0.045
  WS02006229           JUNCTION      0.00  2295.73     0  02:15           0        10.2       0.116
  WS02006230           JUNCTION     10.28  1022.15     0  02:15       0.222        4.59       0.091
  WS02006231           JUNCTION      0.00   453.23     0  02:12           0        3.57      -0.006
  WS02006232           JUNCTION      0.00   453.36     0  02:12           0        3.58       0.234
  WS02006234           JUNCTION      0.00   453.11     0  02:11           0        3.57      -0.054
  WS02006235           JUNCTION      0.00   437.57     0  03:30           0        3.56       0.180
  WS02006238           JUNCTION      0.00   415.81     0  02:21           0        3.21      -0.295
  WS02006239           JUNCTION      0.00   415.21     0  02:05           0        3.19      -0.398
  WS02006240           JUNCTION      0.00   414.94     0  02:05           0        3.19       0.039
  WS02006242           JUNCTION      0.00   415.07     0  02:05           0        3.19       0.147
  WS02006243           JUNCTION      0.00   404.21     0  03:23           0        2.85      -0.377
  WS02006245           JUNCTION      0.00   415.58     0  03:23           0        2.86       0.637
  WS02006247           JUNCTION      0.00   421.87     0  03:23           0        2.86       0.045
  WS02006248           JUNCTION      0.00   443.47     0  03:23           0        3.09      -0.052
  WS02006249           JUNCTION      0.00  1342.42     0  02:15           0        5.47       0.249
  WS02006251           JUNCTION      0.08  1518.98     0  02:15     0.00166        5.59       0.003
  WS02006252           JUNCTION      0.00   577.21     0  02:15           0        2.73      -0.160
  WS02006253           JUNCTION     29.24  1518.40     0  02:15      0.0422        3.14       0.040
  WS02006256           JUNCTION      0.00   300.00     0  01:54           0       0.944       0.072
  WS02006280           JUNCTION      0.00  2294.90     0  02:15           0        7.61       0.010
  WS02006284           JUNCTION      0.10  2294.88     0  02:15     0.00207        7.61       0.003
  WS02006287           JUNCTION      0.00  2295.72     0  02:15           0        7.61       0.012
  WSF200               JUNCTION      0.00  1291.46     0  02:15           0         8.3       0.012
  YS02001580           JUNCTION      0.00    80.98     0  02:06           0     0.00396      -1.575
  YS02001583           JUNCTION      0.00   149.66     0  02:05           0       0.015      -4.428
  YS02001586           JUNCTION    578.56   578.59     0  02:15        1.38        1.39       0.091
  YS02001590           JUNCTION      0.00   317.91     0  02:15           0        1.17      -0.006
  YS02001593           JUNCTION      0.00   317.90     0  02:18           0        1.17       0.009
  YS02001596           JUNCTION      0.00   317.93     0  02:16           0        1.17      -0.003
  YS02001600           JUNCTION      0.00   317.96     0  02:18           0        1.17       0.016
  YS02001601           JUNCTION   1061.34  1378.93     0  02:15        1.93         3.1       0.039
  YS02001602           JUNCTION      0.00   510.05     0  02:05           0        2.03       0.038
  YS02001605           JUNCTION      0.00   510.24     0  02:05           0        1.94       0.054
  YS02001607           JUNCTION      0.00   510.41     0  02:05           0        1.93       0.129
  YS02001610           JUNCTION      0.00   508.93     0  02:05           0        2.01       0.144
  YS02001613           JUNCTION      0.00   508.75     0  02:05           0        1.65       0.131
  YS02001616           JUNCTION      0.00   510.62     0  02:05           0        1.65       0.048
  YS02001619           JUNCTION   1033.64  1033.64     0  02:15         2.2        3.77       0.010
  YS02001622           JUNCTION      0.00   927.37     0  02:08           0        3.69       0.017
  YS02001625           JUNCTION      0.00  1105.43     0  02:15           0        3.76       0.295
  YS02001629           JUNCTION      0.00   927.17     0  02:08           0        3.12       0.011
  YS02001633           JUNCTION    797.49  1376.49     0  02:09         1.4        4.44       0.089
  YS02001641           JUNCTION      0.00  1375.95     0  02:09           0        4.37       0.074
  YS02001644           JUNCTION    712.99  1781.91     0  02:09        1.22        5.58       0.069
  YS02001647           JUNCTION      0.00  1781.85     0  02:09           0         5.5       0.006
  YS02001649           JUNCTION      0.00  2080.20     0  02:09           0        6.61       0.012
  YS02001652           JUNCTION      0.00   724.91     0  02:13           0        1.11      -0.114
  YS02001655           JUNCTION      0.15   723.59     0  02:13     0.00332        1.13      -0.120
  YS02001658           JUNCTION      0.00   722.55     0  02:13           0        1.12      -0.014
  YS02001661           JUNCTION      0.00   836.80     0  02:14           0         1.1       0.010
  YS02001664           JUNCTION    693.85   693.85     0  02:15         1.1         1.1      -0.007
  YS02001745           JUNCTION    441.52   441.52     0  02:15       0.674       0.674       0.228
  YS02001748           JUNCTION      0.04   535.65     0  02:12    0.000972       0.676      -0.372
  YS02001751           JUNCTION      0.01   448.98     0  02:15    0.000238        0.68       0.113
  YS02001754           JUNCTION      0.26   450.22     0  02:15     0.00562       0.688      -0.165
  YS02001757           JUNCTION      0.00  3488.51     0  02:13           0        9.68       0.028
  YS02001759           JUNCTION    612.64  1404.78     0  02:15       0.929         2.4      -0.002
  YS02001762           JUNCTION      0.00   813.09     0  02:16           0        1.47       0.002
  YS02001765           JUNCTION      0.00   812.90     0  02:16           0        1.46       0.006
  YS02001767           JUNCTION      0.54   812.36     0  02:16      0.0116        1.45       0.013
  YS02001770           JUNCTION    871.18   871.18     0  02:15        1.42        1.49       0.007
  YS02001774           JUNCTION      0.00   221.85     0  02:10           0      0.0921       1.323
  YS02001779           JUNCTION      0.01   224.00     0  02:10    0.000108       0.035      -0.942
  YS02001783           JUNCTION      0.00  1159.18     0  02:14           0        3.57       0.008
  YS02001784           JUNCTION      1.06  1160.24     0  02:14      0.0229        3.59       0.018
  YS02001786           JUNCTION      0.06  1160.42     0  02:14     0.00122        3.59       0.021
  YS02001788           JUNCTION      0.07  1160.30     0  02:14     0.00153        3.59       0.010
  YS02001790           JUNCTION      0.15  1171.83     0  02:14     0.00335         3.6       0.021
  YS02001791           JUNCTION      0.00  1283.12     0  02:19           0         3.6      -0.019
  YS02001793           JUNCTION      0.00  1239.84     0  02:19           0         3.6      -0.078
  YS02001882           JUNCTION      0.00    46.57     0  02:07           0      0.0124       5.612
  YS02001884           JUNCTION      0.00    91.80     0  02:06           0      0.0478       5.805
  YS02001887           JUNCTION    653.45   653.75     0  02:15       0.975        1.01       0.460
  YS02001890           JUNCTION      0.00   653.39     0  02:15           0       0.967       0.545
  YS02001895           JUNCTION      0.00   517.13     0  02:17           0       0.931       0.161
  YS02001898           JUNCTION      0.00   517.51     0  02:17           0       0.929       0.050
  YS02001901           JUNCTION      0.00   517.30     0  02:16           0       0.932       0.362
  YS02001904           JUNCTION      0.00   517.54     0  02:16           0       0.936       0.318
  YS02001907           JUNCTION      0.00  1676.23     0  02:15           0        3.05       0.599
  YS02001910           JUNCTION      0.00  1160.34     0  02:15           0        2.12       0.346
  YS02001915           JUNCTION    772.16  1160.58     0  02:14        1.35        2.16       0.084
  YS02001918           JUNCTION      0.00   431.06     0  02:11           0       0.828       0.022
  YS02001920           JUNCTION      2.87   429.55     0  02:11       0.062       0.813       0.132
  YS02001923           JUNCTION      0.04   387.31     0  02:14    0.000814       0.737      -0.028
  YS02001926           JUNCTION      0.05   421.24     0  02:09     0.00113       0.719       0.016
  YS02001929           JUNCTION    373.31   373.31     0  02:15        0.71        0.71      -0.041
  YS02006553           JUNCTION      0.00   794.20     0  02:28           0         2.2       0.550
  YS02006556           JUNCTION      0.00   793.83     0  02:28           0         2.2       0.379
  YS02006558           JUNCTION    891.18  1160.19     0  02:14        1.42         3.6       0.098
  YS02006561           JUNCTION      0.00  1159.10     0  02:14           0        3.57       0.004
  YS02163301           JUNCTION      0.00   926.64     0  02:08           0        3.12       0.059
  YS02163601           JUNCTION      0.11  1376.42     0  02:09     0.00238        4.36       0.124
  YS02164001           JUNCTION      0.00  1376.28     0  02:09           0        4.36       0.059
  YSB1154              JUNCTION    359.45   359.45     0  02:15       0.588       0.589       0.257
  YSB1171              JUNCTION      0.00   803.49     0  02:15           0        1.07       0.608
  YSB1174              JUNCTION    306.81   306.81     0  02:15       0.448       0.448       0.297
  YSB6556              JUNCTION      0.00   359.53     0  02:15           0       0.589       0.220
  CC-1                 OUTFALL       0.00   683.00     0  00:00           0        5.89       0.000
  CC-2                 OUTFALL       0.00   683.00     0  00:10           0        4.27       0.000
  JK-1                 OUTFALL       0.00  1000.00     0  00:00           0         3.2       0.000
  JK-2                 OUTFALL       0.00  1000.00     0  00:00           0         1.6       0.000
  WSC                  OUTFALL       0.00  1495.89     0  02:18           0        12.5       0.000
  CC-storage           STORAGE       0.00  3489.98     0  02:13           0        11.9      -7.558
  JK-storage           STORAGE       0.00  1258.33     0  02:11           0        3.75     -34.711
  XR-storage           STORAGE     200.00   200.00     0  00:00        4.32        4.92       0.001
  
  
  **********************
  Node Surcharge Summary
  **********************
  
  Surcharging occurs when water rises above the top of the highest conduit.
  ---------------------------------------------------------------------
                                               Max. Height   Min. Depth
                                   Hours       Above Crown    Below Rim
  Node                 Type      Surcharged         Meters       Meters
  ---------------------------------------------------------------------
  HS02004478           JUNCTION        0.42          0.656        0.284
  HS02004479           JUNCTION        0.55          0.886        0.164
  HS02004480           JUNCTION        0.58          0.950        0.150
  HS02004770           JUNCTION        0.49          0.720        0.000
  HS02004777           JUNCTION        0.50          0.780        0.000
  HS02004785           JUNCTION        0.45          0.790        0.000
  HS02004788           JUNCTION        0.44          0.720        0.000
  HS02004792           JUNCTION        0.55          0.900        0.000
  HS02004799           JUNCTION        0.66          1.060        0.000
  HS02004802           JUNCTION        0.59          1.067        0.143
  HS02004807           JUNCTION        0.58          1.194        0.026
  HS02004817           JUNCTION        1.08          1.681        0.059
  HS02004824           JUNCTION        0.44          1.260        0.050
  HS02004830           JUNCTION        0.42          1.287        0.043
  HS02004837           JUNCTION        0.37          1.245        0.095
  HS02004842           JUNCTION        0.50          1.520        0.000
  HS02004848           JUNCTION        0.32          1.309        0.061
  HS02004852           JUNCTION        0.35          1.355        0.065
  HS02004856           JUNCTION        0.31          1.300        0.000
  HS02004862           JUNCTION        0.37          1.300        0.000
  HS02004870           JUNCTION        0.39          1.368        0.032
  HS02004876           JUNCTION        0.44          1.389        0.171
  HS02004881           JUNCTION        0.42          1.410        0.040
  HS02004901           JUNCTION        0.50          0.720        0.000
  WS02004401           JUNCTION        1.35          0.826        0.834
  WS02004402           JUNCTION        1.37          0.771        0.969
  WS02004403           JUNCTION        1.37          0.700        1.330
  WS02004404           JUNCTION        1.45          0.711        2.069
  WS02004405           JUNCTION        1.44          0.663        2.137
  WS02004406           JUNCTION        1.43          0.551        1.899
  WS02004409           JUNCTION        0.90          0.373        1.987
  WS02004410           JUNCTION        0.84          0.286        2.254
  WS02004411           JUNCTION        0.78          0.197        2.333
  WS02004412           JUNCTION        0.69          0.099        2.211
  WS02004413           JUNCTION        1.15          0.142        2.058
  WS02006109           JUNCTION        2.00          1.820        0.000
  WS02006110           JUNCTION        1.64          1.469        0.381
  WS02006111           JUNCTION        1.15          0.895        0.975
  WS02006112           JUNCTION        1.70          1.680        0.000
  WS02006113           JUNCTION        1.15          0.999        0.931
  WS02006115           JUNCTION        1.29          0.918        1.332
  WS02006116           JUNCTION        1.30          0.858        1.432
  WS02006228           JUNCTION        1.98          2.199        0.001
  WS02006229           JUNCTION        0.81          1.037        0.033
  WS02006230           JUNCTION        1.49          1.570        0.000
  WS02006231           JUNCTION        1.51          1.479        0.051
  WS02006232           JUNCTION        1.92          1.480        0.000
  WS02006234           JUNCTION        1.56          1.240        0.000
  WS02006235           JUNCTION        1.65          1.290        0.000
  WS02006238           JUNCTION        1.73          1.324        0.106
  WS02006239           JUNCTION        1.61          1.220        0.070
  WS02006240           JUNCTION        1.58          1.390        0.000
  WS02006242           JUNCTION        1.78          0.820        0.000
  WS02006243           JUNCTION        1.56          0.770        0.000
  WS02006245           JUNCTION        1.53          0.808        0.042
  WS02006247           JUNCTION        1.57          0.736        0.024
  WS02006248           JUNCTION        1.49          0.380        0.000
  WS02006249           JUNCTION        1.53          0.390        0.000
  WS02006251           JUNCTION        1.26          1.180        0.000
  WS02006252           JUNCTION        2.09          1.100        0.000
  WS02006253           JUNCTION        1.27          2.379        0.101
  WS02006256           JUNCTION        5.35          2.050        0.000
  WS02006280           JUNCTION        0.68          0.685        0.095
  WS02006284           JUNCTION        0.61          0.659        0.141
  WS02006287           JUNCTION        0.51          0.733        0.157
  YS02001580           JUNCTION        0.53          0.450        0.000
  YS02001583           JUNCTION        0.53          0.500        0.000
  YS02001586           JUNCTION        0.66          0.510        0.000
  YS02001590           JUNCTION        0.73          0.750        0.000
  YS02001593           JUNCTION        0.73          0.713        0.127
  YS02001596           JUNCTION        0.84          0.955        0.115
  YS02001600           JUNCTION        0.98          1.190        0.000
  YS02001601           JUNCTION        1.28          1.440        0.000
  YS02001602           JUNCTION        1.19          1.270        0.000
  YS02001605           JUNCTION        1.15          1.180        0.000
  YS02001607           JUNCTION        0.74          0.650        0.030
  YS02001610           JUNCTION        0.77          0.680        0.000
  YS02001613           JUNCTION        0.74          0.679        0.021
  YS02001616           JUNCTION        0.70          0.610        0.000
  YS02001619           JUNCTION        0.68          0.595        0.015
  YS02001622           JUNCTION        0.68          0.558        0.062
  YS02001625           JUNCTION        0.86          0.780        0.000
  YS02001629           JUNCTION        0.63          0.470        0.000
  YS02001633           JUNCTION        0.90          0.990        0.070
  YS02001641           JUNCTION        0.86          0.948        0.152
  YS02001644           JUNCTION        0.83          0.920        0.000
  YS02001647           JUNCTION        0.61          0.735        0.165
  YS02001649           JUNCTION        0.76          0.892        0.158
  YS02001652           JUNCTION        0.51          0.718        0.412
  YS02001655           JUNCTION        0.26          0.735        0.465
  YS02001658           JUNCTION        0.12          0.651        0.649
  YS02001748           JUNCTION        0.01          0.376        0.814
  YS02001751           JUNCTION        0.16          0.458        0.742
  YS02001754           JUNCTION        0.29          0.577        0.573
  YS02001757           JUNCTION        0.83          0.911        0.299
  YS02001759           JUNCTION        0.74          0.893        0.317
  YS02001762           JUNCTION        0.71          0.892        0.258
  YS02001765           JUNCTION        0.66          0.869        0.231
  YS02001767           JUNCTION        0.62          0.860        0.170
  YS02001770           JUNCTION        0.58          0.874        0.046
  YS02001774           JUNCTION        0.68          0.970        0.080
  YS02001779           JUNCTION        0.30          0.680        0.000
  YS02001783           JUNCTION        0.49          0.499        1.101
  YS02001784           JUNCTION        0.46          0.351        1.139
  YS02001786           JUNCTION        0.36          0.104        1.326
  YS02001793           JUNCTION        0.18          0.418        2.182
  YS02001882           JUNCTION        0.44          0.681        0.149
  YS02001884           JUNCTION        0.45          0.709        0.161
  YS02001887           JUNCTION        0.48          0.774        0.176
  YS02001890           JUNCTION        0.49          0.760        0.000
  YS02001895           JUNCTION        0.43          0.573        0.177
  YS02001898           JUNCTION        0.42          0.545        0.195
  YS02001901           JUNCTION        0.46          0.683        0.187
  YS02001904           JUNCTION        0.45          0.637        0.213
  YS02001907           JUNCTION        0.69          0.950        0.000
  YS02001910           JUNCTION        0.51          1.006        0.094
  YS02001915           JUNCTION        0.43          0.951        0.049
  YS02001918           JUNCTION        0.35          0.810        0.000
  YS02001920           JUNCTION        0.36          1.140        0.000
  YS02001923           JUNCTION        0.02          0.820        0.000
  YS02001926           JUNCTION        0.03          0.900        0.000
  YS02001929           JUNCTION        0.01          0.780        0.000
  YS02006553           JUNCTION        0.70          0.985        0.205
  YS02006556           JUNCTION        0.60          0.939        0.411
  YS02006558           JUNCTION        0.59          0.925        0.475
  YS02006561           JUNCTION        0.32          0.231        0.919
  YS02163301           JUNCTION        0.88          0.915        0.115
  YS02163601           JUNCTION        0.93          1.026        0.054
  YS02164001           JUNCTION        0.86          0.945        0.155
  YSB1154              JUNCTION        0.77          1.245        0.155
  YSB1171              JUNCTION        0.77          1.100        0.000
  YSB1174              JUNCTION        0.70          1.117        0.133
  YSB6556              JUNCTION        0.65          1.092        0.008
  
  
  *********************
  Node Flooding Summary
  *********************
  
  Flooding refers to all water that overflows a node, whether it ponds or not.
  --------------------------------------------------------------------------
                                                             Total   Maximum
                                 Maximum   Time of Max       Flood    Ponded
                        Hours       Rate    Occurrence      Volume     Depth
  Node                 Flooded       LPS   days hr:min    10^6 ltr    Meters
  --------------------------------------------------------------------------
  HS02004770              0.33    797.76      0  02:15       0.477     0.000
  HS02004777              0.01     51.14      0  02:06       0.000     0.000
  HS02004785              0.01    182.26      0  02:06       0.000     0.000
  HS02004788              0.01    259.12      0  02:06       0.001     0.000
  HS02004792              0.32   1260.52      0  02:15       0.797     0.000
  HS02004799              0.17    161.58      0  02:15       0.042     0.000
  HS02004842              0.01     41.98      0  02:10       0.000     0.000
  HS02004856              0.01    305.07      0  02:09       0.001     0.000
  HS02004862              0.01     12.53      0  02:10       0.000     0.000
  HS02004901              0.39    581.98      0  02:15       0.559     0.000
  WS02006109              0.36    256.47      0  02:15       0.196     0.000
  WS02006112              0.01   1153.65      0  00:00       0.035     0.000
  WS02006230              0.62    569.19      0  02:15       0.820     0.000
  WS02006232              0.17      0.58      0  02:14       0.000     0.000
  WS02006234              0.67    128.34      0  02:06       0.199     0.000
  WS02006235              0.01      9.54      0  03:00       0.000     0.000
  WS02006240              0.01     50.13      0  03:00       0.000     0.000
  WS02006242              0.76    137.44      0  02:21       0.327     0.000
  WS02006243              0.01     58.66      0  01:50       0.000     0.000
  WS02006248              1.10    340.09      0  02:01       1.100     0.000
  WS02006249              1.27   1281.50      0  02:15       3.229     0.000
  WS02006251              0.01     35.26      0  02:09       0.000     0.000
  WS02006252              0.18    576.92      0  02:15       0.290     0.000
  WS02006256              0.68    284.30      0  02:20       0.427     0.000
  YS02001580              0.01     53.10      0  02:06       0.000     0.000
  YS02001583              0.01     72.98      0  02:06       0.000     0.000
  YS02001586              0.40    261.06      0  02:15       0.208     0.000
  YS02001590              0.01      4.37      0  02:06       0.000     0.000
  YS02001600              0.01      1.76      0  02:06       0.000     0.000
  YS02001601              0.60    980.75      0  02:15       1.070     0.000
  YS02001602              0.50     61.91      0  02:15       0.094     0.000
  YS02001605              0.01      3.14      0  02:05       0.000     0.000
  YS02001610              0.40    500.80      0  02:16       0.434     0.000
  YS02001616              0.01      9.69      0  02:05       0.000     0.000
  YS02001625              0.36   1105.27      0  02:15       0.704     0.000
  YS02001629              0.07    115.53      0  02:13       0.016     0.000
  YS02001644              0.08    339.58      0  02:13       0.062     0.000
  YS02001779              0.06    172.04      0  02:10       0.009     0.000
  YS02001890              0.12    137.93      0  02:15       0.031     0.000
  YS02001907              0.30   1409.01      0  02:15       0.845     0.000
  YS02001918              0.01     84.13      0  02:10       0.001     0.000
  YS02001920              0.01     17.80      0  02:10       0.000     0.000
  YS02001923              0.01     37.36      0  02:10       0.000     0.000
  YS02001926              0.01    205.75      0  02:10       0.000     0.000
  YS02001929              0.01    241.71      0  02:10       0.001     0.000
  YSB1171                 0.23    803.47      0  02:15       0.372     0.000
  
  
  **********************
  Storage Volume Summary
  **********************
  
  --------------------------------------------------------------------------------------------------
                         Average     Avg  Evap Exfil       Maximum     Max    Time of Max    Maximum
                          Volume    Pcnt  Pcnt  Pcnt        Volume    Pcnt     Occurrence    Outflow
  Storage Unit           1000 m3    Full  Loss  Loss       1000 m3    Full    days hr:min        LPS
  --------------------------------------------------------------------------------------------------
  CC-storage               1.867      29     0     0         5.063      79       0  02:40    1766.00
  JK-storage               0.017       6     0     0         0.266      91       0  02:56    2300.00
  XR-storage               0.932      65     0     0         1.039      72       0  06:00     190.00
  
  
  ***********************
  Outfall Loading Summary
  ***********************
  
  -----------------------------------------------------------
                         Flow       Avg       Max       Total
                         Freq      Flow      Flow      Volume
  Outfall Node           Pcnt       LPS       LPS    10^6 ltr
  -----------------------------------------------------------
  CC-1                  66.56    464.38    683.00       5.888
  CC-2                  37.52    524.38    683.00       4.271
  JK-1                  80.70    235.47   1000.00       3.204
  JK-2                  40.80    230.29   1000.00       1.599
  WSC                   99.99    659.22   1495.89      12.546
  -----------------------------------------------------------
  System                65.12   2113.75   4174.83      27.508
  
  
  ********************
  Link Flow Summary
  ********************
  
  -----------------------------------------------------------------------------
                                 Maximum  Time of Max   Maximum    Max/    Max/
                                  |Flow|   Occurrence   |Veloc|    Full    Full
  Link                 Type          LPS  days hr:min     m/sec    Flow   Depth
  -----------------------------------------------------------------------------
  1                    CONDUIT   1495.89     0  02:18      3.69    0.52    0.51
  HS02004478WS02006287 CONDUIT   2295.72     0  02:15      2.57    0.64    1.00
  HS02004479HS02004480 CONDUIT    408.07     0  02:09      0.58    0.39    1.00
  HS02004480HS02004478 CONDUIT   2093.25     0  02:08      2.99    8.82    1.00
  HS02004770HS02004777 CONDUIT    755.68     0  02:06      1.08    1.38    1.00
  HS02004777HS02004785 CONDUIT    760.14     0  02:06      1.13    0.94    1.00
  HS02004785HS02004788 CONDUIT    637.60     0  02:06      1.36    4.81    1.00
  HS02004788HS02004792 CONDUIT    822.90     0  02:30      1.44    0.54    1.00
  HS02004792HS02004799 CONDUIT   1569.08     0  02:07      2.24    0.96    1.00
  HS02004799HS02004480 CONDUIT   1731.92     0  02:07      2.47    2.19    1.00
  HS02004802HS02004478 CONDUIT   1142.06     0  02:15      1.63    1.01    1.00
  HS02004807HS02004802 CONDUIT   1142.01     0  02:15      1.63    2.18    1.00
  HS02004817HS02004807 CONDUIT    755.00     0  02:15      1.08    0.45    1.00
  HS02004817HS02004824 CONDUIT    753.56     0  02:15      1.08    0.34    1.00
  HS02004824HS02004830 CONDUIT    626.16     0  02:07      0.90    0.82    1.00
  HS02004830HS02004837 CONDUIT    641.59     0  02:07      1.01    0.64    1.00
  HS02004837HS02004842 CONDUIT    829.19     0  02:07      1.18    0.49    1.00
  HS02004842HS02004848 CONDUIT    828.35     0  02:07      1.32    0.48    1.00
  HS02004848HS02004852 CONDUIT   1028.64     0  02:09      1.61    1.16    1.00
  HS02004852HS02004856 CONDUIT   1004.44     0  02:09      1.48    1.15    1.00
  HS02004856HS02004862 CONDUIT   1062.98     0  02:09      1.71    1.06    1.00
  HS02004862HS02004870 CONDUIT   1186.53     0  02:09      1.95    1.28    1.00
  HS02004870HS02004876 CONDUIT   1238.94     0  02:09      1.94    0.82    1.00
  HS02004876HS02004881 CONDUIT   1374.94     0  02:15      2.54   14.62    1.00
  HS02004881HS02006253 CONDUIT   1489.41     0  02:15      2.66    0.29    1.00
  HS02004901HS02004770 CONDUIT    265.79     0  02:26      0.38    1.00    1.00
  WS02001211WS02001212 CONDUIT    211.32     0  02:50      0.54    0.16    0.69
  WS02001212WS02001213 CONDUIT    216.42     0  02:49      1.04    0.33    0.56
  WS02001213WS02003059 CONDUIT    221.79     0  02:49      0.47    0.37    0.89
  WS02003059WS02003060 CONDUIT    228.33     0  02:50      0.66    0.15    0.81
  WS02003060WS02003069 CONDUIT   1494.12     0  02:16      2.08    0.59    0.61
  WS02003066WSF200     CONDUIT   1291.46     0  02:15      3.24    0.22    0.38
  WS02003067WS02003066 CONDUIT   1291.31     0  02:15      1.99    0.41    0.56
  WS02003069WS02003072 CONDUIT   1494.13     0  02:17      1.89    0.72    0.66
  WS02003072WS02003073 CONDUIT   1494.08     0  02:17      2.05    3.23    0.62
  WS02004138WS02004139 CONDUIT    190.00     0  00:32      2.12    0.04    0.41
  WS02004139WS02001211 CONDUIT    197.05     0  02:50      0.53    0.25    0.60
  WS02004401WS02004402 CONDUIT   1292.52     0  02:15      2.07    1.55    1.00
  WS02004402WS02004403 CONDUIT   1292.16     0  02:15      1.84    1.86    1.00
  WS02004403WS02004404 CONDUIT   1293.06     0  02:15      1.66    0.93    1.00
  WS02004404WS02004405 CONDUIT   1292.48     0  02:15      1.85   12.66    1.00
  WS02004405WS02004406 CONDUIT   1292.50     0  02:15      1.73    2.55    1.00
  WS02004406WS02004407 CONDUIT   1292.63     0  02:15      1.70    0.58    0.95
  WS02004407WS02004409 CONDUIT   1290.64     0  02:15      1.80    0.46    0.95
  WS02004409WS02004410 CONDUIT   1290.97     0  02:15      1.64    1.67    1.00
  WS02004410WS02004411 CONDUIT   1290.97     0  02:15      1.64    1.76    1.00
  WS02004411WS02004412 CONDUIT   1291.03     0  02:15      1.64    1.83    1.00
  WS02004412WS02004413 CONDUIT   1290.88     0  02:15      1.64    0.86    1.00
  WS02004413WS02003067 CONDUIT   1290.94     0  02:15      2.00    0.55    0.77
  WS02006109WS02006110 CONDUIT   1306.78     0  00:00      3.15    2.51    1.00
  WS02006110WS02006113 CONDUIT   1120.88     0  02:28      2.23    1.02    1.00
  WS02006111WS02006112 CONDUIT   2307.30     0  00:00      9.18    1.10    1.00
  WS02006112WS02006115 CONDUIT   2152.75     0  00:00      2.85    1.27    1.00
  WS02006113WS02006111 CONDUIT   1176.04     0  00:00      2.62    1.41    1.00
  WS02006115WS02006116 CONDUIT   1292.49     0  02:15      1.81    1.66    1.00
  WS02006116WS02004401 CONDUIT   1292.03     0  02:15      2.21    1.78    1.00
  WS02006228WS02006109 CONDUIT   1283.72     0  02:15      2.55    5.61    1.00
  WS02006229WS02006228 CONDUIT   1284.00     0  02:15      2.55    4.25    1.00
  WS02006230WS02006229 CONDUIT   1011.87     0  02:15      2.63   22.52    1.00
  WS02006231WS02006230 CONDUIT    453.23     0  02:12      1.37    6.87    1.00
  WS02006232WS02006231 CONDUIT    453.36     0  02:12      1.18    0.95    1.00
  WS02006234WS02006232 CONDUIT    453.11     0  02:11      1.36    0.92    1.00
  WS02006235WS02006234 CONDUIT    436.85     0  03:30      1.28    4.61    1.00
  WS02006238WS02006235 CONDUIT    415.81     0  02:21      1.61    0.93    1.00
  WS02006239WS02006238 CONDUIT    415.21     0  02:05      1.25    1.33    1.00
  WS02006240WS02006239 CONDUIT    414.94     0  02:05      1.31    1.31    1.00
  WS02006242WS02006240 CONDUIT    415.07     0  02:05      1.15    1.65    1.00
  WS02006243WS02006242 CONDUIT    388.90     0  00:27      1.40    0.83    1.00
  WS02006245WS02006243 CONDUIT    404.21     0  03:23      1.39    1.20    1.00
  WS02006247WS02006245 CONDUIT    415.58     0  03:23      1.38    3.30    1.00
  WS02006248WS02006247 CONDUIT    421.87     0  03:23      1.41    0.92    1.00
  WS02006249WS02006248 CONDUIT    443.47     0  03:23      1.40    2.43    1.00
  WS02006251WS02006249 CONDUIT   1342.42     0  02:15      3.49    3.87    1.00
  WS02006252WS02006251 CONDUIT    417.60     0  01:51     19.13    1.53    1.00
  WS02006253WS02006251 CONDUIT   1518.91     0  02:15      3.95    4.55    1.00
  WS02006256WS02006235 CONDUIT    217.46     0  01:49      3.08    2.30    1.00
  WS02006280WS02006229 CONDUIT   2295.73     0  02:15      4.18    0.49    1.00
  WS02006284WS02006280 CONDUIT   2294.90     0  02:15      3.02    0.96    1.00
  WS02006287WS02006284 CONDUIT   2294.79     0  02:15      2.92    1.06    1.00
  WSF200WS02003060     CONDUIT   1291.66     0  02:15      2.28    0.29    0.50
  YS02001580YS02001583 CONDUIT     80.98     0  02:06      0.59    0.31    1.00
  YS02001583YS02001586 CONDUIT    149.66     0  02:05      0.62    0.23    1.00
  YS02001586YS02001590 CONDUIT    317.91     0  02:15      1.26    0.56    1.00
  YS02001590YS02001593 CONDUIT    317.90     0  02:18      1.12    2.00    1.00
  YS02001593YS02001596 CONDUIT    317.93     0  02:16      1.70    0.50    1.00
  YS02001596YS02001600 CONDUIT    317.96     0  02:18      1.24    0.62    1.00
  YS02001600YS02001601 CONDUIT    317.89     0  02:15      1.12    0.55    1.00
  YS02001601YS02001602 CONDUIT    510.05     0  02:05      1.80    1.84    1.00
  YS02001602YS02001605 CONDUIT    510.24     0  02:05      1.80   10.80    1.00
  YS02001605YS02001607 CONDUIT    510.41     0  02:05      1.81    2.80    1.00
  YS02001607YS02001610 CONDUIT    508.93     0  02:05      0.65    0.48    1.00
  YS02001610YS02001613 CONDUIT    508.75     0  02:05      0.65    0.59    1.00
  YS02001613YS02001616 CONDUIT    510.62     0  02:05      0.66    0.44    1.00
  YS02001616YS02001619 CONDUIT    510.65     0  02:05      0.67    0.89    1.00
  YS02001619YS02001622 CONDUIT    927.37     0  02:08      1.18    1.37    1.00
  YS02001622YS02001625 CONDUIT    927.27     0  02:08      1.18    0.49    1.00
  YS02001625YS02001629 CONDUIT    927.17     0  02:08      1.18    0.44    1.00
  YS02001629YS02163301 CONDUIT    926.64     0  02:08      1.18    1.14    1.00
  YS02001633YS02163601 CONDUIT   1376.31     0  02:09      1.75    1.44    1.00
  YS02001641YS02001644 CONDUIT   1375.95     0  02:09      1.75    4.45    1.00
  YS02001644YS02001647 CONDUIT   1781.85     0  02:09      2.28    1.05    1.00
  YS02001647YS02001649 CONDUIT   1791.49     0  02:09      2.35    0.95    1.00
  YS02001649YS02001757 CONDUIT   2069.85     0  02:09      2.65    1.26    1.00
  YS02001652YS02001649 CONDUIT    726.66     0  02:13      0.93    0.36    1.00
  YS02001655YS02001652 CONDUIT    724.91     0  02:13      1.28    0.35    1.00
  YS02001658YS02001655 CONDUIT    723.44     0  02:13      1.85    0.31    1.00
  YS02001661YS02001658 CONDUIT    722.55     0  02:13      2.30    0.28    0.99
  YS02001664YS02001661 CONDUIT    836.80     0  02:14      2.34    0.26    0.70
  YS02001745YS02001748 CONDUIT    535.61     0  02:12      2.16    0.21    0.82
  YS02001748YS02001751 CONDUIT    448.97     0  02:15      1.72    0.23    1.00
  YS02001751YS02001754 CONDUIT    449.96     0  02:15      1.36    0.22    1.00
  YS02001754YS02001757 CONDUIT    449.27     0  02:15      0.57    0.18    1.00
  YS02001757CaochengTiaoxuchi CONDUIT   3489.98     0  02:13      6.52    1.51    1.00
  YS02001759YS02001757 CONDUIT   1403.96     0  02:15      1.79    1.00    1.00
  YS02001762YS02001759 CONDUIT    814.32     0  02:16      1.04    0.94    1.00
  YS02001765YS02001762 CONDUIT    813.09     0  02:16      1.04    0.76    1.00
  YS02001767YS02001765 CONDUIT    812.90     0  02:16      1.04    1.02    1.00
  YS02001770YS02001767 CONDUIT    811.82     0  02:16      1.03    3.22    1.00
  YS02001774YS02001770 CONDUIT    221.85     0  02:10      0.28    0.14    1.00
  YS02001779YS02001774 CONDUIT    223.99     0  02:10      0.29    0.11    1.00
  YS02001783YS02001784 CONDUIT   1159.18     0  02:14      2.31    1.60    1.00
  YS02001784YS02001785 CONDUIT   1160.37     0  02:14      2.31    2.70    1.00
  YS02001786YS02001788 CONDUIT   1160.23     0  02:14      2.47    2.24    0.89
  YS02001788YS02001790 CONDUIT   1171.67     0  02:14      2.72    0.86    0.84
  YS02001790YS02001791 CONDUIT   1283.12     0  02:19      3.42    1.40    0.70
  YS02001791YS02001793 CONDUIT   1239.84     0  02:19      6.76    0.53    0.92
  YS02001793JiankangQianchi CONDUIT   1258.33     0  02:11     24.39    0.10    1.00
  YS02001882YS02001884 CONDUIT     46.57     0  02:07      0.10    0.05    1.00
  YS02001884YS02001887 CONDUIT     91.80     0  02:06      0.12    0.12    1.00
  YS02001887YS02001890 CONDUIT    653.39     0  02:15      0.83    1.12    1.00
  YS02001890YS02001895 CONDUIT    517.13     0  02:17      0.66    0.24    1.00
  YS02001895YS02001898 CONDUIT    517.51     0  02:17      0.66    0.90    1.00
  YS02001898YS02001901 CONDUIT    517.30     0  02:16      0.66    0.33    1.00
  YS02001901YS02001904 CONDUIT    517.54     0  02:16      0.66    0.80    1.00
  YS02001904YS02001907 CONDUIT    517.17     0  02:16      0.66    0.18    1.00
  YS02001907YS02006553 CONDUIT    794.20     0  02:28      0.88    0.93    1.00
  YS02001910YS02001907 CONDUIT   1161.11     0  02:15      1.48    0.65    1.00
  YS02001915YS02001910 CONDUIT   1160.34     0  02:15      1.48    0.58    1.00
  YS02001918YS02001915 CONDUIT    430.73     0  02:11      0.55    0.24    1.00
  YS02001920YS02001918 CONDUIT    431.06     0  02:11      0.66    0.42    1.00
  YS02001923YS02001920 CONDUIT    426.68     0  02:11      0.69    0.19    1.00
  YS02001926YS02001923 CONDUIT    387.27     0  02:14      0.96    0.55    1.00
  YS02001929YS02001926 CONDUIT    385.11     0  02:14      1.11    0.18    1.00
  YS02006553YS02006556 CONDUIT    793.83     0  02:28      1.01    0.68    1.00
  YS02006556YS02006558 CONDUIT    794.32     0  02:29      1.01    0.63    1.00
  YS02006558YS02006561 CONDUIT   1159.10     0  02:14      4.10    2.56    1.00
  YS02006561YS02001783 CONDUIT   1159.18     0  02:14      2.31    0.60    1.00
  YS02163301YS02001633 CONDUIT    926.54     0  02:08      1.18    0.87    1.00
  YS02163601YS02164001 CONDUIT   1376.28     0  02:09      1.75    1.22    1.00
  YS02164001YS02001641 CONDUIT   1375.95     0  02:09      1.75    1.88    1.00
  YSB1154YSB6556       CONDUIT    359.53     0  02:15      0.93    0.65    1.00
  YSB1171HS02004479    CONDUIT    407.60     0  02:09      0.81    0.27    1.00
  YSB1174YSB1171       CONDUIT    306.63     0  02:15      0.80    0.47    1.00
  YSB6556YSB1171       CONDUIT    360.42     0  02:15      0.94    0.37    1.00
  CC-R1                PUMP       683.00     0  00:00              1.00
  CC-R2                PUMP       683.00     0  00:10              1.00
  CC-S1                PUMP       200.00     0  00:10              1.00
  CC-S2                PUMP       200.00     0  00:10              1.00
  JK-R1                PUMP      1000.00     0  00:00              1.00
  JK-R2                PUMP      1000.00     0  00:00              1.00
  JK-S                 PUMP       300.00     0  01:54              1.00
  XR-1                 PUMP        95.00     0  00:10              1.00
  XR-2                 PUMP        95.00     0  00:28              1.00
  XR-3                 PUMP         0.00     0  00:00              0.00
  XR-4                 PUMP         0.00     0  00:00              0.00
  
  
  ***************************
  Flow Classification Summary
  ***************************
  
  -------------------------------------------------------------------------------------
                      Adjusted    ---------- Fraction of Time in Flow Class ---------- 
                       /Actual         Up    Down  Sub   Sup   Up    Down  Norm  Inlet 
  Conduit               Length    Dry  Dry   Dry   Crit  Crit  Crit  Crit  Ltd   Ctrl  
  -------------------------------------------------------------------------------------
  1                       1.00   0.00  0.00  0.00  0.00  1.00  0.00  0.00  0.49  0.00
  HS02004478WS02006287    1.00   0.13  0.00  0.00  0.60  0.27  0.00  0.00  0.47  0.00
  HS02004479HS02004480    1.00   0.02  0.00  0.00  0.98  0.00  0.00  0.00  0.16  0.00
  HS02004480HS02004478    1.00   0.11  0.00  0.00  0.51  0.00  0.00  0.38  0.00  0.00
  HS02004770HS02004777    1.00   0.00  0.11  0.00  0.89  0.00  0.00  0.00  0.04  0.00
  HS02004777HS02004785    1.00   0.00  0.00  0.00  1.00  0.00  0.00  0.00  0.17  0.00
  HS02004785HS02004788    1.00   0.00  0.00  0.00  1.00  0.00  0.00  0.00  0.00  0.00
  HS02004788HS02004792    1.00   0.00  0.00  0.00  1.00  0.00  0.00  0.00  0.88  0.00
  HS02004792HS02004799    1.00   0.00  0.00  0.00  1.00  0.00  0.00  0.00  0.83  0.00
  HS02004799HS02004480    1.00   0.00  0.02  0.00  0.87  0.00  0.11  0.00  0.00  0.00
  HS02004802HS02004478    1.00   0.11  0.00  0.00  0.89  0.00  0.00  0.00  0.03  0.00
  HS02004807HS02004802    1.00   0.11  0.00  0.00  0.88  0.00  0.00  0.01  0.00  0.00
  HS02004817HS02004807    1.00   0.00  0.11  0.00  0.89  0.00  0.00  0.00  0.01  0.00
  HS02004817HS02004824    1.00   0.00  0.00  0.00  1.00  0.00  0.00  0.00  0.78  0.00
  HS02004824HS02004830    1.00   0.00  0.00  0.00  1.00  0.00  0.00  0.00  0.01  0.00
  HS02004830HS02004837    1.00   0.00  0.00  0.00  1.00  0.00  0.00  0.00  0.86  0.00
  HS02004837HS02004842    1.00   0.00  0.00  0.00  1.00  0.00  0.00  0.00  0.14  0.00
  HS02004842HS02004848    1.00   0.00  0.11  0.00  0.89  0.00  0.00  0.00  0.43  0.00
  HS02004848HS02004852    1.00   0.11  0.00  0.00  0.89  0.00  0.00  0.00  0.59  0.00
  HS02004852HS02004856    1.00   0.11  0.01  0.00  0.89  0.00  0.00  0.00  0.58  0.00
  HS02004856HS02004862    1.00   0.00  0.14  0.00  0.86  0.00  0.00  0.00  0.65  0.00
  HS02004862HS02004870    1.00   0.00  0.00  0.00  1.00  0.00  0.00  0.00  0.06  0.00
  HS02004870HS02004876    1.00   0.00  0.00  0.00  1.00  0.00  0.00  0.00  0.82  0.00
  HS02004876HS02004881    1.00   0.00  0.00  0.00  0.77  0.22  0.00  0.00  0.00  0.00
  HS02004881HS02006253    1.00   0.01  0.02  0.00  0.58  0.04  0.00  0.36  0.35  0.00
  HS02004901HS02004770    1.00   0.11  0.00  0.00  0.89  0.00  0.00  0.00  0.01  0.00
  WS02001211WS02001212    1.00   0.00  0.01  0.00  0.99  0.00  0.00  0.00  0.00  0.00
  WS02001212WS02001213    1.00   0.01  0.00  0.00  0.59  0.00  0.40  0.00  0.00  0.00
  WS02001213WS02003059    1.00   0.00  0.00  0.00  1.00  0.00  0.00  0.00  0.00  0.00
  WS02003059WS02003060    1.00   0.00  0.00  0.00  1.00  0.00  0.00  0.00  0.04  0.00
  WS02003060WS02003069    1.00   0.00  0.00  0.00  0.97  0.03  0.00  0.00  0.29  0.00
  WS02003066WSF200        1.00   0.06  0.00  0.00  0.00  0.94  0.00  0.00  0.61  0.00
  WS02003067WS02003066    1.00   0.05  0.00  0.00  0.94  0.00  0.00  0.00  0.00  0.00
  WS02003069WS02003072    1.00   0.00  0.00  0.00  1.00  0.00  0.00  0.00  0.40  0.00
  WS02003072WS02003073    1.00   0.00  0.00  0.00  0.00  0.00  0.00  1.00  0.00  0.00
  WS02004138WS02004139    1.00   0.01  0.00  0.00  0.99  0.00  0.00  0.00  0.97  0.00
  WS02004139WS02001211    1.00   0.00  0.00  0.00  1.00  0.00  0.00  0.00  0.01  0.00
  WS02004401WS02004402    1.00   0.00  0.00  0.00  1.00  0.00  0.00  0.00  0.00  0.00
  WS02004402WS02004403    1.00   0.00  0.00  0.00  1.00  0.00  0.00  0.00  0.00  0.00
  WS02004403WS02004404    1.00   0.00  0.00  0.00  1.00  0.00  0.00  0.00  0.00  0.00
  WS02004404WS02004405    1.00   0.00  0.00  0.00  1.00  0.00  0.00  0.00  0.01  0.00
  WS02004405WS02004406    1.00   0.00  0.00  0.00  1.00  0.00  0.00  0.00  0.00  0.00
  WS02004406WS02004407    1.00   0.00  0.00  0.00  1.00  0.00  0.00  0.00  0.01  0.00
  WS02004407WS02004409    1.00   0.00  0.00  0.00  0.97  0.02  0.00  0.00  0.83  0.00
  WS02004409WS02004410    1.00   0.00  0.00  0.00  1.00  0.00  0.00  0.00  0.01  0.00
  WS02004410WS02004411    1.00   0.00  0.00  0.00  1.00  0.00  0.00  0.00  0.02  0.00
  WS02004411WS02004412    1.00   0.00  0.00  0.00  1.00  0.00  0.00  0.00  0.00  0.00
  WS02004412WS02004413    1.00   0.00  0.00  0.00  1.00  0.00  0.00  0.00  0.02  0.00
  WS02004413WS02003067    1.00   0.01  0.05  0.00  0.00  0.00  0.95  0.00  0.00  0.00
  WS02006109WS02006110    1.00   0.00  0.00  0.00  1.00  0.00  0.00  0.00  0.00  0.00
  WS02006110WS02006113    1.00   0.00  0.00  0.00  1.00  0.00  0.00  0.00  0.00  0.00
  WS02006111WS02006112    1.00   0.00  0.00  0.00  1.00  0.00  0.00  0.00  0.76  0.00
  WS02006112WS02006115    1.00   0.00  0.00  0.00  1.00  0.00  0.00  0.00  0.00  0.00
  WS02006113WS02006111    1.00   0.00  0.00  0.00  0.27  0.73  0.00  0.00  0.17  0.00
  WS02006115WS02006116    1.00   0.00  0.00  0.00  1.00  0.00  0.00  0.00  0.00  0.00
  WS02006116WS02004401    1.00   0.00  0.00  0.00  1.00  0.00  0.00  0.00  0.00  0.00
  WS02006228WS02006109    1.00   0.00  0.00  0.00  1.00  0.00  0.00  0.00  0.00  0.00
  WS02006229WS02006228    1.00   0.00  0.00  0.00  1.00  0.00  0.00  0.00  0.00  0.00
  WS02006230WS02006229    1.00   0.00  0.00  0.00  1.00  0.00  0.00  0.00  0.01  0.00
  WS02006231WS02006230    1.00   0.00  0.00  0.00  0.58  0.00  0.42  0.00  0.00  0.00
  WS02006232WS02006231    1.00   0.00  0.00  0.00  0.99  0.00  0.00  0.00  0.01  0.00
  WS02006234WS02006232    1.00   0.00  0.00  0.00  1.00  0.00  0.00  0.00  0.06  0.00
  WS02006235WS02006234    1.00   0.01  0.00  0.00  0.91  0.00  0.08  0.00  0.00  0.00
  WS02006238WS02006235    1.00   0.01  0.00  0.00  0.99  0.00  0.00  0.00  0.00  0.00
  WS02006239WS02006238    1.00   0.01  0.00  0.00  0.99  0.00  0.00  0.00  0.08  0.00
  WS02006240WS02006239    1.00   0.01  0.00  0.00  0.87  0.00  0.00  0.12  0.02  0.00
  WS02006242WS02006240    1.00   0.01  0.00  0.00  0.98  0.00  0.01  0.00  0.00  0.00
  WS02006243WS02006242    1.00   0.01  0.00  0.00  0.99  0.00  0.00  0.00  0.34  0.00
  WS02006245WS02006243    1.00   0.01  0.00  0.00  0.92  0.00  0.00  0.08  0.01  0.00
  WS02006247WS02006245    1.00   0.01  0.00  0.00  0.97  0.00  0.00  0.02  0.00  0.00
  WS02006248WS02006247    1.00   0.01  0.00  0.00  0.99  0.00  0.00  0.00  0.36  0.00
  WS02006249WS02006248    1.00   0.00  0.01  0.00  0.77  0.00  0.23  0.00  0.00  0.00
  WS02006251WS02006249    1.00   0.00  0.00  0.00  1.00  0.00  0.00  0.00  0.35  0.00
  WS02006252WS02006251    1.00   0.01  0.14  0.00  0.27  0.00  0.58  0.00  0.03  0.00
  WS02006253WS02006251    1.00   0.01  0.00  0.00  0.99  0.00  0.00  0.00  0.01  0.00
  WS02006256WS02006235    1.00   0.01  0.00  0.00  0.99  0.00  0.00  0.00  0.00  0.00
  WS02006280WS02006229    1.00   0.11  0.00  0.00  0.23  0.02  0.00  0.64  0.01  0.00
  WS02006284WS02006280    1.00   0.11  0.00  0.00  0.16  0.01  0.00  0.71  0.00  0.00
  WS02006287WS02006284    1.00   0.09  0.04  0.00  0.43  0.43  0.00  0.00  0.55  0.00
  WSF200WS02003060        1.00   0.00  0.06  0.00  0.50  0.44  0.00  0.00  0.44  0.00
  YS02001580YS02001583    1.00   0.27  0.43  0.00  0.30  0.00  0.00  0.00  0.53  0.00
  YS02001583YS02001586    1.00   0.15  0.44  0.00  0.41  0.00  0.00  0.00  0.54  0.00
  YS02001586YS02001590    1.00   0.11  0.00  0.00  0.69  0.06  0.00  0.15  0.48  0.00
  YS02001590YS02001593    1.00   0.11  0.00  0.00  0.18  0.00  0.71  0.00  0.00  0.00
  YS02001593YS02001596    1.00   0.11  0.00  0.00  0.21  0.01  0.00  0.67  0.02  0.00
  YS02001596YS02001600    1.00   0.11  0.00  0.00  0.30  0.02  0.00  0.57  0.05  0.00
  YS02001600YS02001601    1.00   0.11  0.00  0.00  0.89  0.00  0.00  0.00  0.49  0.00
  YS02001601YS02001602    1.00   0.11  0.01  0.00  0.89  0.00  0.00  0.00  0.00  0.00
  YS02001602YS02001605    1.00   0.11  0.00  0.00  0.89  0.00  0.00  0.00  0.00  0.00
  YS02001605YS02001607    1.00   0.11  0.00  0.00  0.89  0.00  0.00  0.00  0.00  0.00
  YS02001607YS02001610    1.00   0.11  0.00  0.00  0.89  0.00  0.00  0.00  0.03  0.00
  YS02001610YS02001613    1.00   0.11  0.00  0.00  0.89  0.00  0.00  0.00  0.01  0.00
  YS02001613YS02001616    1.00   0.11  0.00  0.00  0.89  0.00  0.00  0.00  0.01  0.00
  YS02001616YS02001619    1.00   0.11  0.00  0.00  0.89  0.00  0.00  0.00  0.00  0.00
  YS02001619YS02001622    1.00   0.11  0.00  0.00  0.89  0.00  0.00  0.00  0.05  0.00
  YS02001622YS02001625    1.00   0.11  0.00  0.00  0.89  0.00  0.00  0.00  0.08  0.00
  YS02001625YS02001629    1.00   0.11  0.04  0.00  0.25  0.00  0.60  0.00  0.00  0.00
  YS02001629YS02163301    1.00   0.13  0.01  0.00  0.86  0.00  0.00  0.00  0.00  0.00
  YS02001633YS02163601    1.00   0.00  0.00  0.00  1.00  0.00  0.00  0.00  0.21  0.00
  YS02001641YS02001644    1.00   0.00  0.00  0.00  1.00  0.00  0.00  0.00  0.00  0.00
  YS02001644YS02001647    1.00   0.00  0.14  0.00  0.86  0.00  0.00  0.00  0.00  0.00
  YS02001647YS02001649    1.00   0.00  0.14  0.00  0.65  0.21  0.00  0.00  0.42  0.00
  YS02001649YS02001757    1.00   0.00  0.00  0.00  0.88  0.12  0.00  0.00  0.56  0.00
  YS02001652YS02001649    1.00   0.00  0.00  0.00  0.96  0.04  0.00  0.00  0.56  0.00
  YS02001655YS02001652    1.00   0.00  0.00  0.00  0.45  0.01  0.00  0.54  0.10  0.00
  YS02001658YS02001655    1.00   0.00  0.12  0.00  0.61  0.27  0.00  0.00  0.56  0.00
  YS02001661YS02001658    1.00   0.12  0.00  0.00  0.32  0.56  0.00  0.00  0.56  0.00
  YS02001664YS02001661    1.00   0.11  0.00  0.00  0.74  0.15  0.00  0.00  0.82  0.00
  YS02001745YS02001748    1.00   0.00  0.00  0.00  0.16  0.01  0.00  0.83  0.10  0.00
  YS02001748YS02001751    1.00   0.00  0.00  0.00  0.81  0.19  0.00  0.00  0.60  0.00
  YS02001751YS02001754    1.00   0.00  0.00  0.00  0.43  0.01  0.00  0.56  0.09  0.00
  YS02001754YS02001757    1.00   0.00  0.00  0.00  1.00  0.00  0.00  0.00  0.64  0.00
  YS02001757CaochengTiaoxuchi    1.00   0.00  0.00  0.00  0.55  0.45  0.00  0.00  0.16  0.00
  YS02001759YS02001757    1.00   0.00  0.00  0.00  1.00  0.00  0.00  0.00  0.54  0.00
  YS02001762YS02001759    1.00   0.00  0.00  0.00  1.00  0.00  0.00  0.00  0.07  0.00
  YS02001765YS02001762    1.00   0.00  0.00  0.00  1.00  0.00  0.00  0.00  0.53  0.00
  YS02001767YS02001765    1.00   0.00  0.00  0.00  1.00  0.00  0.00  0.00  0.00  0.00
  YS02001770YS02001767    1.00   0.00  0.00  0.00  1.00  0.00  0.00  0.00  0.00  0.00
  YS02001774YS02001770    1.00   0.00  0.11  0.00  0.89  0.00  0.00  0.00  0.05  0.00
  YS02001779YS02001774    1.00   0.00  0.00  0.00  1.00  0.00  0.00  0.00  0.60  0.00
  YS02001783YS02001784    1.00   0.00  0.15  0.00  0.85  0.00  0.00  0.00  0.41  0.00
  YS02001784YS02001785    1.00   0.00  0.00  0.00  1.00  0.00  0.00  0.00  0.24  0.00
  YS02001786YS02001788    1.00   0.00  0.00  0.00  0.69  0.31  0.00  0.00  0.00  0.00
  YS02001788YS02001790    1.00   0.00  0.00  0.00  0.24  0.76  0.00  0.00  0.77  0.00
  YS02001790YS02001791    1.00   0.00  0.00  0.00  0.04  0.96  0.00  0.00  0.16  0.00
  YS02001791YS02001793    1.00   0.00  0.00  0.00  0.04  0.96  0.00  0.00  0.02  0.00
  YS02001793JiankangQianchi    1.00   0.00  0.00  0.00  0.09  0.91  0.00  0.00  0.10  0.00
  YS02001882YS02001884    1.00   0.12  0.01  0.00  0.87  0.00  0.00  0.00  0.00  0.00
  YS02001884YS02001887    1.00   0.06  0.04  0.00  0.90  0.00  0.00  0.00  0.00  0.00
  YS02001887YS02001890    1.00   0.00  0.00  0.00  0.99  0.00  0.01  0.00  0.00  0.00
  YS02001890YS02001895    1.00   0.00  0.14  0.00  0.86  0.00  0.00  0.00  0.00  0.00
  YS02001895YS02001898    1.00   0.14  0.00  0.00  0.84  0.00  0.02  0.00  0.00  0.00
  YS02001898YS02001901    1.00   0.14  0.00  0.00  0.86  0.00  0.00  0.00  0.02  0.00
  YS02001901YS02001904    1.00   0.14  0.00  0.00  0.86  0.00  0.00  0.00  0.00  0.00
  YS02001904YS02001907    1.00   0.00  0.14  0.00  0.86  0.00  0.00  0.00  0.00  0.00
  YS02001907YS02006553    1.00   0.00  0.01  0.00  0.99  0.00  0.00  0.00  0.00  0.00
  YS02001910YS02001907    1.00   0.00  0.00  0.00  0.99  0.00  0.00  0.01  0.16  0.00
  YS02001915YS02001910    1.00   0.00  0.00  0.00  0.98  0.02  0.00  0.00  0.23  0.00
  YS02001918YS02001915    1.00   0.00  0.00  0.00  1.00  0.00  0.00  0.00  0.69  0.00
  YS02001920YS02001918    1.00   0.00  0.00  0.00  1.00  0.00  0.00  0.00  0.01  0.00
  YS02001923YS02001920    1.00   0.00  0.00  0.00  1.00  0.00  0.00  0.00  0.91  0.00
  YS02001926YS02001923    1.00   0.00  0.07  0.00  0.09  0.00  0.84  0.00  0.00  0.00
  YS02001929YS02001926    1.00   0.00  0.11  0.00  0.89  0.00  0.00  0.00  0.77  0.00
  YS02006553YS02006556    1.00   0.00  0.00  0.00  1.00  0.00  0.00  0.00  0.04  0.00
  YS02006556YS02006558    1.00   0.00  0.00  0.00  1.00  0.00  0.00  0.00  0.00  0.00
  YS02006558YS02006561    1.00   0.15  0.00  0.00  0.08  0.76  0.00  0.00  0.24  0.00
  YS02006561YS02001783    1.00   0.15  0.00  0.00  0.14  0.71  0.00  0.00  0.58  0.00
  YS02163301YS02001633    1.00   0.00  0.13  0.00  0.87  0.00  0.00  0.00  0.00  0.00
  YS02163601YS02164001    1.00   0.00  0.08  0.00  0.92  0.00  0.00  0.00  0.00  0.00
  YS02164001YS02001641    1.00   0.00  0.08  0.00  0.92  0.00  0.00  0.00  0.08  0.00
  YSB1154YSB6556          1.00   0.11  0.00  0.00  0.89  0.00  0.00  0.00  0.02  0.00
  YSB1171HS02004479       1.00   0.02  0.00  0.00  0.95  0.01  0.00  0.02  0.14  0.00
  YSB1174YSB1171          1.00   0.04  0.05  0.00  0.91  0.00  0.00  0.00  0.00  0.00
  YSB6556YSB1171          1.00   0.02  0.09  0.00  0.89  0.00  0.00  0.00  0.00  0.00
  
  
  *************************
  Conduit Surcharge Summary
  *************************
  
  ----------------------------------------------------------------------------
                                                           Hours        Hours 
                         --------- Hours Full --------   Above Full   Capacity
  Conduit                Both Ends  Upstream  Dnstream   Normal Flow   Limited
  ----------------------------------------------------------------------------
  HS02004478WS02006287        0.42      0.42      0.59      0.01         0.01
  HS02004479HS02004480        0.59      0.59      0.61      0.01         0.01
  HS02004480HS02004478        0.52      0.58      0.52      1.51         0.52
  HS02004770HS02004777        0.49      0.49      0.50      0.09         0.07
  HS02004777HS02004785        0.45      0.45      0.50      0.01         0.01
  HS02004785HS02004788        0.44      0.45      0.44      1.26         0.42
  HS02004788HS02004792        0.44      0.44      0.55      0.01         0.01
  HS02004792HS02004799        0.55      0.55      0.66      0.01         0.01
  HS02004799HS02004480        0.58      0.58      0.66      0.75         0.01
  HS02004802HS02004478        0.53      0.53      0.60      0.01         0.01
  HS02004807HS02004802        0.58      0.58      0.59      0.20         0.20
  HS02004817HS02004807        0.58      0.58      1.08      0.01         0.01
  HS02004817HS02004824        0.44      0.44      1.08      0.01         0.01
  HS02004824HS02004830        0.42      0.42      0.44      0.01         0.01
  HS02004830HS02004837        0.37      0.37      0.42      0.01         0.01
  HS02004837HS02004842        0.37      0.37      0.50      0.01         0.01
  HS02004842HS02004848        0.32      0.32      0.50      0.01         0.01
  HS02004848HS02004852        0.32      0.32      0.35      0.03         0.01
  HS02004852HS02004856        0.34      0.35      0.37      0.03         0.01
  HS02004856HS02004862        0.31      0.31      0.37      0.02         0.01
  HS02004862HS02004870        0.37      0.37      0.39      0.14         0.13
  HS02004870HS02004876        0.39      0.39      0.44      0.01         0.01
  HS02004876HS02004881        0.42      0.44      0.42      1.29         0.42
  HS02004881HS02006253        0.42      0.42      1.27      0.01         0.01
  HS02004901HS02004770        0.49      0.49      0.50      0.01         0.01
  WS02003072WS02003073        0.01      0.01      0.01      2.91         0.01
  WS02004401WS02004402        1.35      1.35      1.37      1.22         1.21
  WS02004402WS02004403        1.37      1.37      1.37      1.35         1.34
  WS02004403WS02004404        1.37      1.37      1.45      0.01         0.02
  WS02004404WS02004405        1.44      1.45      1.44      3.95         1.44
  WS02004405WS02004406        1.43      1.44      1.43      1.65         1.43
  WS02004406WS02004407        0.01      0.01      1.43      0.01         0.01
  WS02004407WS02004409        0.01      0.01      0.90      0.01         0.01
  WS02004409WS02004410        0.84      0.90      0.84      1.28         0.84
  WS02004410WS02004411        0.78      0.84      0.78      1.32         0.78
  WS02004411WS02004412        0.69      0.78      0.69      1.34         0.69
  WS02004412WS02004413        0.69      0.69      1.15      0.01         0.01
  WS02004413WS02003067        0.01      0.01      1.15      0.01         0.01
  WS02006109WS02006110        1.63      1.64      2.21      1.65         0.01
  WS02006110WS02006113        1.15      1.15      2.12      0.27         0.01
  WS02006111WS02006112        1.14      1.15      2.62      0.01         0.01
  WS02006112WS02006115        1.29      1.29      1.69      0.01         0.01
  WS02006113WS02006111        1.15      1.15      1.15      1.20         1.15
  WS02006115WS02006116        1.30      1.30      1.30      1.28         1.27
  WS02006116WS02004401        1.35      1.35      1.35      1.33         1.32
  WS02006228WS02006109        2.00      2.21      2.00      3.00         2.00
  WS02006229WS02006228        1.98      2.04      1.98      2.59         1.98
  WS02006230WS02006229        2.37      2.48      2.37      3.86         1.44
  WS02006231WS02006230        1.49      1.49      1.53      3.57         0.91
  WS02006232WS02006231        1.51      1.51      1.92      0.01         0.13
  WS02006234WS02006232        1.60      1.60      1.92      0.01         0.01
  WS02006235WS02006234        1.56      1.56      1.65      3.25         0.88
  WS02006238WS02006235        1.69      1.69      1.83      0.01         0.31
  WS02006239WS02006238        1.71      1.76      1.73      1.33         0.23
  WS02006240WS02006239        1.58      1.62      1.60      1.33         0.16
  WS02006242WS02006240        1.58      1.58      1.88      1.71         0.77
  WS02006243WS02006242        1.58      1.58      1.78      0.01         0.01
  WS02006245WS02006243        1.54      1.55      1.55      0.63         0.16
  WS02006247WS02006245        1.53      1.60      1.53      2.50         0.42
  WS02006248WS02006247        1.52      1.52      1.57      0.01         0.01
  WS02006249WS02006248        1.49      1.49      1.53      1.42         0.01
  WS02006251WS02006249        1.52      1.54      1.53      1.83         1.30
  WS02006252WS02006251        2.03      2.03      2.08      1.14         0.01
  WS02006253WS02006251        1.53      1.53      1.59      0.72         0.02
  WS02006256WS02006235        3.52      3.52      5.34      0.48         0.01
  WS02006280WS02006229        0.70      0.70      0.81      0.01         0.01
  WS02006284WS02006280        0.61      0.61      0.68      0.01         0.01
  WS02006287WS02006284        0.51      0.51      0.62      0.24         0.24
  YS02001580YS02001583        0.53      0.53      0.57      0.01         0.01
  YS02001583YS02001586        0.53      0.53      0.66      0.01         0.01
  YS02001586YS02001590        0.67      0.67      0.73      0.01         0.01
  YS02001590YS02001593        0.74      0.74      0.75      0.76         0.01
  YS02001593YS02001596        0.75      0.75      0.84      0.01         0.01
  YS02001596YS02001600        0.89      0.89      0.98      0.01         0.01
  YS02001600YS02001601        1.04      1.04      1.28      0.01         0.01
  YS02001601YS02001602        1.19      1.19      1.32      0.95         0.01
  YS02001602YS02001605        1.15      1.15      1.19      2.12         0.01
  YS02001605YS02001607        1.12      1.15      1.12      1.23         1.11
  YS02001607YS02001610        0.74      0.74      0.77      0.01         0.01
  YS02001610YS02001613        0.74      0.74      0.77      0.01         0.01
  YS02001613YS02001616        0.70      0.70      0.74      0.01         0.01
  YS02001616YS02001619        0.68      0.68      0.70      0.01         0.01
  YS02001619YS02001622        0.68      0.68      0.68      0.69         0.61
  YS02001622YS02001625        0.68      0.68      0.86      0.01         0.01
  YS02001625YS02001629        0.63      0.63      0.86      0.01         0.01
  YS02001629YS02163301        0.86      0.86      0.88      0.16         0.19
  YS02001633YS02163601        0.90      0.90      0.93      0.37         0.38
  YS02001641YS02001644        0.83      0.86      0.83      1.36         0.82
  YS02001644YS02001647        0.61      0.61      0.83      0.05         0.01
  YS02001647YS02001649        0.61      0.61      0.76      0.01         0.01
  YS02001649YS02001757        0.75      0.76      0.83      0.37         0.30
  YS02001652YS02001649        0.57      0.57      0.76      0.01         0.01
  YS02001655YS02001652        0.26      0.26      0.51      0.01         0.01
  YS02001658YS02001655        0.12      0.12      0.26      0.01         0.01
  YS02001661YS02001658        0.01      0.01      0.12      0.01         0.01
  YS02001664YS02001661        0.01      0.01      0.01      0.01         0.01
  YS02001745YS02001748        0.01      0.01      0.01      0.01         0.01
  YS02001748YS02001751        0.06      0.06      0.16      0.01         0.01
  YS02001751YS02001754        0.16      0.16      0.29      0.01         0.01
  YS02001754YS02001757        0.50      0.50      0.83      0.01         0.01
  YS02001757CaochengTiaoxuchi        0.66      0.83      1.81      0.37         0.15
  YS02001759YS02001757        0.74      0.74      0.83      0.01         0.02
  YS02001762YS02001759        0.71      0.71      0.74      0.01         0.03
  YS02001765YS02001762        0.66      0.66      0.71      0.01         0.01
  YS02001767YS02001765        0.62      0.62      0.66      0.01         0.06
  YS02001770YS02001767        0.62      0.62      0.62      0.49         0.41
  YS02001774YS02001770        0.58      0.58      0.68      0.01         0.01
  YS02001779YS02001774        0.30      0.30      0.68      0.01         0.01
  YS02001783YS02001784        0.46      0.49      0.46      0.63         0.46
  YS02001784YS02001785        0.36      0.46      0.36      0.83         0.36
  YS02001786YS02001788        0.01      0.36      0.01      0.72         0.01
  YS02001790YS02001791        0.01      0.01      0.01      0.45         0.01
  YS02001791YS02001793        0.01      0.01      0.19      0.01         0.01
  YS02001793JiankangQianchi        0.18      0.18      0.48      0.01         0.01
  YS02001882YS02001884        0.44      0.44      0.45      0.01         0.01
  YS02001884YS02001887        0.47      0.47      0.48      0.01         0.01
  YS02001887YS02001890        0.49      0.49      0.50      0.05         0.01
  YS02001890YS02001895        0.43      0.43      0.52      0.01         0.01
  YS02001895YS02001898        0.42      0.42      0.43      0.01         0.01
  YS02001898YS02001901        0.43      0.43      0.46      0.01         0.01
  YS02001901YS02001904        0.45      0.45      0.46      0.01         0.01
  YS02001904YS02001907        0.45      0.45      0.71      0.01         0.01
  YS02001907YS02006553        0.83      0.83      0.90      0.01         0.01
  YS02001910YS02001907        0.51      0.51      0.69      0.01         0.01
  YS02001915YS02001910        0.43      0.43      0.51      0.01         0.01
  YS02001918YS02001915        0.35      0.35      0.43      0.01         0.01
  YS02001920YS02001918        0.35      0.35      0.36      0.01         0.01
  YS02001923YS02001920        0.30      0.30      0.36      0.01         0.01
  YS02001926YS02001923        0.01      0.02      0.03      0.01         0.01
  YS02001929YS02001926        0.01      0.01      0.03      0.01         0.01
  YS02006553YS02006556        0.60      0.60      0.70      0.01         0.01
  YS02006556YS02006558        0.65      0.65      0.72      0.01         0.01
  YS02006558YS02006561        0.38      0.59      0.38      0.79         0.38
  YS02006561YS02001783        0.32      0.32      0.49      0.01         0.01
  YS02163301YS02001633        0.88      0.88      0.91      0.01         0.01
  YS02163601YS02164001        0.86      0.86      0.93      0.10         0.01
  YS02164001YS02001641        0.85      0.86      0.86      0.66         0.61
  YSB1154YSB6556              0.65      0.65      0.77      0.01         0.01
  YSB1171HS02004479           0.54      0.54      0.77      0.01         0.01
  YSB1174YSB1171              0.70      0.70      0.99      0.01         0.01
  YSB6556YSB1171              0.65      0.65      1.14      0.01         0.01
  
  
  ***************
  Pumping Summary
  ***************
  
  ---------------------------------------------------------------------------------------------------------
                                                  Min       Avg       Max     Total     Power    % Time Off
                        Percent   Number of      Flow      Flow      Flow    Volume     Usage    Pump Curve
  Pump                 Utilized   Start-Ups       LPS       LPS       LPS  10^6 ltr     Kw-hr    Low   High
  ---------------------------------------------------------------------------------------------------------
  CC-R1                   66.81           8      0.00    464.38    683.00     5.889    101.41    0.0   76.1
  CC-R2                   41.74           8      0.00    524.38    683.00     4.272     73.98    0.0   68.4
  CC-S1                   58.23          13      0.00    153.51    200.00     1.724     11.61    0.0   50.1
  CC-S2                   33.21          11      0.00    135.06    200.00     0.961      7.14    0.0   54.4
  JK-R1                   77.89           7      0.00    235.47   1000.00     3.203     11.99    0.0    0.0
  JK-R2                   41.71          12      0.00    230.29   1000.00     1.596      3.96    0.0    0.0
  JK-S                    52.69           8      0.00     93.73    300.00     0.943     18.38    0.0    0.0
  XR-1                    97.20           1      0.00     95.00     95.00     1.995      8.83    0.0    0.0
  XR-2                    91.96           1      0.00     95.00     95.00     1.887      8.00    0.0    0.0
  XR-3                     0.00           0      0.00      0.00      0.00     0.000      0.00    0.0    0.0
  XR-4                     0.00           0      0.00      0.00      0.00     0.000      0.00    0.0    0.0
  

  Analysis begun on:  Mon Aug 22 16:55:37 2022
  Analysis ended on:  Mon Aug 22 16:55:42 2022
  Total elapsed time: 00:00:05