
  OWA STORM WATER MANAGEMENT MODEL - VERSION v5.1.14 (OWA 2022-07-31)
  --------------------------------------------------------------

  WARNING 04: minimum elevation drop used for Conduit WS02004404WS02004405
  WARNING 03: negative offset ignored for Link YS02001904YS02001907
  
  *********************************************************
  NOTE: The summary statistics displayed in this report are
  based on results found at every computational time step,  
  not just on results from each reporting time step.
  *********************************************************
  
  ****************
  Analysis Options
  ****************
  Flow Units ............... LPS
  Process Models:
    Rainfall/Runoff ........ YES
    RDII ................... NO
    Snowmelt ............... NO
    Groundwater ............ NO
    Flow Routing ........... YES
    Ponding Allowed ........ NO
    Water Quality .......... NO
  Infiltration Method ...... HORTON
  Flow Routing Method ...... DYNWAVE
  Surcharge Method ......... EXTRAN
  Starting Date ............ 01/01/2000 00:00:00
  Ending Date .............. 01/01/2000 06:00:00
  Antecedent Dry Days ...... 8.0
  Report Time Step ......... 00:01:00
  Wet Time Step ............ 00:01:00
  Dry Time Step ............ 00:01:00
  Routing Time Step ........ 30.00 sec
  Variable Time Step ....... YES
  Maximum Trials ........... 8
  Number of Threads ........ 4
  Head Tolerance ........... 0.001500 m
  
  
  **************************        Volume         Depth
  Runoff Quantity Continuity     hectare-m            mm
  **************************     ---------       -------
  Total Precipitation ......         2.906        47.966
  Evaporation Loss .........         0.000         0.000
  Infiltration Loss ........         0.233         3.852
  Surface Runoff ...........         2.608        43.056
  Final Storage ............         0.065         1.068
  Continuity Error (%) .....        -0.019
  
  
  **************************        Volume        Volume
  Flow Routing Continuity        hectare-m      10^6 ltr
  **************************     ---------     ---------
  Dry Weather Inflow .......         0.472         4.722
  Wet Weather Inflow .......         2.609        26.087
  Groundwater Inflow .......         0.000         0.000
  RDII Inflow ..............         0.000         0.000
  External Inflow ..........         0.078         0.784
  External Outflow .........         2.227        22.266
  Flooding Loss ............         1.043        10.430
  Evaporation Loss .........         0.000         0.000
  Exfiltration Loss ........         0.000         0.000
  Initial Stored Volume ....         0.303         3.031
  Final Stored Volume ......         0.333         3.330
  Continuity Error (%) .....        -4.048
  
  
  *************************
  Highest Continuity Errors
  *************************
  Node JK-storage (-33.69%)
  Node YS02001583 (-6.05%)
  Node YS02001884 (5.41%)
  Node YS02001774 (1.85%)
  Node HS02004842 (1.77%)
  
  
  ***************************
  Time-Step Critical Elements
  ***************************
  Link WS02006252WS02006251 (44.02%)
  Link WS02006280WS02006229 (26.47%)
  Link WS02004404WS02004405 (5.61%)
  Link WS02006238WS02006235 (4.43%)
  Link YS02001793JiankangQianchi (3.87%)
  
  
  ********************************
  Highest Flow Instability Indexes
  ********************************
  Link WS02006113WS02006111 (32)
  Link WS02006111WS02006112 (18)
  Link WS02006238WS02006235 (17)
  Link WS02004404WS02004405 (16)
  Link WS02006229WS02006228 (15)
  
  
  *************************
  Routing Time Step Summary
  *************************
  Minimum Time Step           :     0.50 sec
  Average Time Step           :     1.69 sec
  Maximum Time Step           :    30.00 sec
  Percent in Steady State     :    -0.00
  Average Iterations per Step :     3.04
  Percent Not Converging      :     9.42
  
  
  ***************************
  Subcatchment Runoff Summary
  ***************************
  
  ------------------------------------------------------------------------------------------------------------------------------
                            Total      Total      Total      Total     Imperv       Perv      Total       Total     Peak  Runoff
                           Precip      Runon       Evap      Infil     Runoff     Runoff     Runoff      Runoff   Runoff   Coeff
  Subcatchment                 mm         mm         mm         mm         mm         mm         mm    10^6 ltr      LPS
  ------------------------------------------------------------------------------------------------------------------------------
  sub0                      47.97       0.00       0.00       0.98      43.34       2.38      45.72        0.04    24.72   0.953
  sub1                      47.97       0.00       0.00       1.67      41.38       3.61      45.00        0.30   171.82   0.938
  sub10                     47.97       0.00       0.00       1.18      42.79       2.66      45.46        0.50   293.62   0.948
  sub11                     47.97       0.00       0.00       1.16      42.83       2.68      45.51        0.53   325.10   0.949
  sub12                     47.97       0.00       0.00       1.88      40.54       4.35      44.89        0.39   257.78   0.936
  sub14                     47.97       0.00       0.00       1.32      42.35       3.00      45.34        0.43   259.68   0.945
  sub15                     47.97       0.00       0.00       5.14      32.57       9.25      41.82        0.72   394.09   0.872
  sub16                     47.97       0.00       0.00       5.33      31.21      10.50      41.72        0.44   264.88   0.870
  sub17                     47.97       0.00       0.00       5.19      31.67      10.16      41.83        0.36   215.35   0.872
  sub2                      47.97       0.00       0.00       7.29      29.26      10.46      39.72        0.37   170.31   0.828
  sub22                     47.97       0.00       0.00       7.78      26.54      12.85      39.39        2.49  1301.03   0.821
  sub23                     47.97       0.00       0.00       6.35      29.33      11.40      40.73        1.94  1084.41   0.849
  sub3                      47.97       0.00       0.00       7.87      29.18       9.88      39.06        0.88   361.58   0.814
  sub4                      47.97       0.00       0.00       1.85      41.08       3.43      44.51        0.93   401.72   0.928
  sub5                      47.97       0.00       0.00       1.03      43.24       2.33      45.58        0.52   296.95   0.950
  sub60                     47.97       0.00       0.00       1.77      40.97       3.99      44.96        0.59   367.87   0.937
  sub61                     47.97       0.00       0.00       2.57      38.65       5.59      44.24        0.81   508.96   0.922
  sub62                     47.97       0.00       0.00       1.18      42.78       2.66      45.44        1.25   719.53   0.947
  sub63                     47.97       0.00       0.00       4.73      33.06       9.19      42.25        0.96   566.22   0.881
  sub64                     47.97       0.00       0.00       2.39      39.49       4.81      44.30        1.06   580.38   0.924
  sub65                     47.97       0.00       0.00       2.07      40.39       4.17      44.56        1.23   646.80   0.929
  sub66                     47.97       0.00       0.00       5.79      32.86       8.12      40.98        1.91   814.02   0.854
  sub67                     47.97       0.00       0.00       1.14      42.86       2.70      45.56        0.85   549.06   0.950
  sub68                     47.97       0.00       0.00       2.13      40.02       4.59      44.61        1.23   735.97   0.930
  sub69                     47.97       0.00       0.00       1.88      40.57       5.32      45.89        1.70   863.35   0.957
  sub7                      47.97       0.00       0.00       1.30      42.37       3.02      45.39        0.15    95.99   0.946
  sub70                     47.97       0.00       0.00       6.17      31.36      10.14      41.50        1.20   455.80   0.865
  sub71                     47.97       0.00       0.00       1.21      42.71       2.63      45.34        1.19   629.84   0.945
  sub72                     47.97       0.00       0.00       1.08      43.06       2.28      45.34        0.62   300.54   0.945
  sub8                      47.97       0.00       0.00       1.32      42.36       3.00      45.36        0.29   176.55   0.946
  sub9                      47.97       0.00       0.00       1.32      42.35       3.00      45.35        0.22   131.97   0.945
  
  
  ******************
  Node Depth Summary
  ******************
  
  ---------------------------------------------------------------------------------
                                 Average  Maximum  Maximum  Time of Max    Reported
                                   Depth    Depth      HGL   Occurrence   Max Depth
  Node                 Type       Meters   Meters   Meters  days hr:min      Meters
  ---------------------------------------------------------------------------------
  HS02004478           JUNCTION     0.20     1.59    10.82     0  02:02        1.52
  HS02004479           JUNCTION     0.28     1.70    10.90     0  02:02        1.66
  HS02004480           JUNCTION     0.25     1.68    10.92     0  02:02        1.61
  HS02004770           JUNCTION     0.25     1.42    11.25     0  01:59        1.42
  HS02004777           JUNCTION     0.27     1.48    11.28     0  01:59        1.44
  HS02004785           JUNCTION     0.17     1.49    11.39     0  01:59        1.33
  HS02004788           JUNCTION     0.14     1.42    11.32     0  01:59        1.32
  HS02004792           JUNCTION     0.19     1.60    11.12     0  01:59        1.60
  HS02004799           JUNCTION     0.31     1.76    10.97     0  02:02        1.76
  HS02004802           JUNCTION     0.28     1.80    10.93     0  02:02        1.68
  HS02004807           JUNCTION     0.26     1.92    11.09     0  02:02        1.72
  HS02004817           JUNCTION     0.56     2.42    11.27     0  02:02        2.07
  HS02004824           JUNCTION     0.14     2.00    11.40     0  02:02        1.55
  HS02004830           JUNCTION     0.14     2.01    11.48     0  02:02        1.49
  HS02004837           JUNCTION     0.11     1.98    11.56     0  02:02        1.39
  HS02004842           JUNCTION     0.41     2.22    11.49     0  02:02        1.70
  HS02004848           JUNCTION     0.09     2.07    11.67     0  02:02        1.36
  HS02004852           JUNCTION     0.10     2.12    11.63     0  02:02        1.41
  HS02004856           JUNCTION     0.15     2.07    11.50     0  02:02        1.46
  HS02004862           JUNCTION     0.11     2.00    11.38     0  02:02        1.44
  HS02004870           JUNCTION     0.11     2.10    11.39     0  02:02        1.45
  HS02004876           JUNCTION     0.16     1.94    10.97     0  02:02        1.57
  HS02004881           JUNCTION     0.10     1.89    10.92     0  02:02        1.39
  HS02004901           JUNCTION     0.25     1.42    11.24     0  01:59        1.42
  WS02001211           JUNCTION     0.65     0.80     5.64     0  02:08        0.80
  WS02001212           JUNCTION     0.38     0.56     5.63     0  02:07        0.56
  WS02001213           JUNCTION     0.61     0.86     5.62     0  02:07        0.86
  WS02003059           JUNCTION     0.67     0.93     5.62     0  02:06        0.93
  WS02003060           JUNCTION     0.39     0.68     5.61     0  02:06        0.68
  WS02003066           JUNCTION     0.23     0.45     6.00     0  02:05        0.45
  WS02003067           JUNCTION     0.55     0.88     6.20     0  02:05        0.88
  WS02003069           JUNCTION     0.44     0.77     5.35     0  02:07        0.77
  WS02003072           JUNCTION     0.50     0.80     5.17     0  02:07        0.80
  WS02003073           JUNCTION     0.30     0.51     4.57     0  02:08        0.51
  WS02004138           JUNCTION     0.14     0.14     7.39     0  00:29        0.14
  WS02004139           JUNCTION     0.58     0.74     5.65     0  02:08        0.73
  WS02004401           JUNCTION     0.79     1.79     7.79     0  02:04        1.78
  WS02004402           JUNCTION     0.81     1.73     7.69     0  02:04        1.73
  WS02004403           JUNCTION     0.82     1.66     7.59     0  02:04        1.65
  WS02004404           JUNCTION     0.88     1.68     7.53     0  02:05        1.67
  WS02004405           JUNCTION     0.87     1.62     7.47     0  02:04        1.62
  WS02004406           JUNCTION     0.86     1.52     7.35     0  02:05        1.51
  WS02004407           JUNCTION     0.27     0.87     7.19     0  02:05        0.87
  WS02004409           JUNCTION     0.55     1.35     7.12     0  02:05        1.35
  WS02004410           JUNCTION     0.56     1.27     6.99     0  02:05        1.25
  WS02004411           JUNCTION     0.56     1.18     6.86     0  02:04        1.18
  WS02004412           JUNCTION     0.57     1.09     6.73     0  02:05        1.09
  WS02004413           JUNCTION     0.71     1.14     6.61     0  02:05        1.13
  WS02006109           JUNCTION     1.00     2.64     9.26     0  01:59        2.64
  WS02006110           JUNCTION     0.94     2.37     8.95     0  02:04        2.36
  WS02006111           JUNCTION     0.42     1.66     8.37     0  02:04        1.66
  WS02006112           JUNCTION     1.01     2.68     8.56     0  00:00        2.27
  WS02006113           JUNCTION     0.51     1.77     8.66     0  02:04        1.76
  WS02006115           JUNCTION     0.71     1.87     8.01     0  02:04        1.86
  WS02006116           JUNCTION     0.78     1.87     7.91     0  02:05        1.87
  WS02006228           JUNCTION     1.06     3.03     9.68     0  02:02        3.00
  WS02006229           JUNCTION     1.06     3.24     9.93     0  02:02        3.19
  WS02006230           JUNCTION     1.00     2.65     9.39     0  01:57        2.65
  WS02006231           JUNCTION     0.73     2.19     9.31     0  02:25        2.18
  WS02006232           JUNCTION     0.83     2.18     9.22     0  01:57        2.18
  WS02006234           JUNCTION     0.72     1.96     9.12     0  01:55        1.96
  WS02006235           JUNCTION     0.74     1.97     9.14     0  02:00        1.93
  WS02006238           JUNCTION     0.76     1.98     9.13     0  02:00        1.93
  WS02006239           JUNCTION     0.71     1.84     9.05     0  02:00        1.78
  WS02006240           JUNCTION     0.66     1.66     8.95     0  02:00        1.62
  WS02006242           JUNCTION     0.70     1.55     8.82     0  01:50        1.55
  WS02006243           JUNCTION     0.59     1.38     8.80     0  02:40        1.36
  WS02006245           JUNCTION     0.57     1.28     8.76     0  03:00        1.27
  WS02006247           JUNCTION     0.59     1.23     8.73     0  02:40        1.22
  WS02006248           JUNCTION     0.53     1.10     8.69     0  01:48        1.10
  WS02006249           JUNCTION     0.56     1.09     8.69     0  01:44        1.09
  WS02006251           JUNCTION     0.64     2.21     9.88     0  02:02        2.07
  WS02006252           JUNCTION     0.46     1.50     9.74     0  02:02        1.50
  WS02006253           JUNCTION     0.70     2.99    10.63     0  02:02        2.70
  WS02006256           JUNCTION     1.03     2.35     9.28     0  00:46        2.35
  WS02006280           JUNCTION     0.27     1.76    10.03     0  02:02        1.71
  WS02006284           JUNCTION     0.53     1.96    10.36     0  02:02        1.90
  WS02006287           JUNCTION     0.26     1.75    10.70     0  02:02        1.67
  WSF200               JUNCTION     0.23     0.51     5.74     0  02:06        0.51
  YS02001580           JUNCTION     0.07     1.05     9.59     0  01:59        0.77
  YS02001583           JUNCTION     0.09     1.14     9.64     0  01:59        0.82
  YS02001586           JUNCTION     0.18     1.13     9.30     0  01:59        1.13
  YS02001590           JUNCTION     0.27     1.39     9.26     0  01:59        1.37
  YS02001593           JUNCTION     0.20     1.31     9.17     0  01:59        1.28
  YS02001596           JUNCTION     0.28     1.67     9.09     0  01:59        1.65
  YS02001600           JUNCTION     0.34     1.87     9.00     0  01:59        1.86
  YS02001601           JUNCTION     0.53     2.06     8.90     0  01:58        2.06
  YS02001602           JUNCTION     0.45     1.87     8.77     0  01:58        1.87
  YS02001605           JUNCTION     0.41     1.78     8.68     0  01:58        1.77
  YS02001607           JUNCTION     0.39     1.66     8.51     0  01:59        1.64
  YS02001610           JUNCTION     0.43     1.68     8.48     0  01:58        1.68
  YS02001613           JUNCTION     0.39     1.69     8.53     0  01:59        1.65
  YS02001616           JUNCTION     0.34     1.61     8.52     0  01:59        1.58
  YS02001619           JUNCTION     0.32     1.61     8.54     0  01:59        1.56
  YS02001622           JUNCTION     0.30     1.58     8.49     0  01:59        1.55
  YS02001625           JUNCTION     0.50     1.78     8.38     0  01:59        1.78
  YS02001629           JUNCTION     0.41     1.85     8.40     0  01:59        1.85
  YS02001633           JUNCTION     0.47     2.01     8.46     0  02:03        1.97
  YS02001641           JUNCTION     0.45     1.95     8.39     0  02:03        1.92
  YS02001644           JUNCTION     0.45     1.92     8.35     0  02:03        1.92
  YS02001647           JUNCTION     0.27     1.73     8.34     0  02:03        1.70
  YS02001649           JUNCTION     0.31     1.92     8.31     0  02:03        1.88
  YS02001652           JUNCTION     0.22     1.83     8.43     0  02:03        1.70
  YS02001655           JUNCTION     0.16     1.82     8.67     0  02:03        1.47
  YS02001658           JUNCTION     0.12     1.74     8.88     0  02:03        1.21
  YS02001661           JUNCTION     0.14     1.06     8.47     0  02:04        0.99
  YS02001664           JUNCTION     0.06     0.50     8.42     0  02:04        0.36
  YS02001745           JUNCTION     0.06     0.69     8.21     0  02:03        0.63
  YS02001748           JUNCTION     0.11     1.69     8.77     0  02:03        1.08
  YS02001751           JUNCTION     0.14     1.67     8.55     0  02:03        1.28
  YS02001754           JUNCTION     0.19     1.74     8.35     0  02:03        1.54
  YS02001757           JUNCTION     0.33     1.98     8.24     0  02:03        1.88
  YS02001759           JUNCTION     0.28     1.92     8.29     0  02:03        1.87
  YS02001762           JUNCTION     0.27     1.89     8.29     0  02:03        1.85
  YS02001765           JUNCTION     0.25     1.86     8.31     0  02:03        1.83
  YS02001767           JUNCTION     0.26     1.85     8.34     0  02:04        1.82
  YS02001770           JUNCTION     0.27     1.89     8.38     0  02:04        1.87
  YS02001774           JUNCTION     0.32     1.96     8.38     0  02:04        1.95
  YS02001779           JUNCTION     0.16     1.68     8.37     0  02:02        1.68
  YS02001783           JUNCTION     0.22     1.79     7.93     0  02:05        1.69
  YS02001784           JUNCTION     0.24     1.78     7.84     0  02:05        1.62
  YS02001786           JUNCTION     0.20     1.63     7.66     0  02:05        1.44
  YS02001788           JUNCTION     0.15     1.57     7.54     0  02:05        1.26
  YS02001790           JUNCTION     0.18     1.74     7.39     0  02:26        1.38
  YS02001791           JUNCTION     0.13     1.67     7.14     0  02:05        1.31
  YS02001793           JUNCTION     0.13     1.91     6.74     0  02:05        1.81
  YS02001882           JUNCTION     0.26     1.68     8.40     0  02:02        1.63
  YS02001884           JUNCTION     0.34     1.77     8.39     0  02:02        1.72
  YS02001887           JUNCTION     0.42     1.83     8.37     0  02:02        1.80
  YS02001890           JUNCTION     0.45     1.81     8.32     0  02:02        1.81
  YS02001895           JUNCTION     0.24     1.57     8.31     0  02:04        1.56
  YS02001898           JUNCTION     0.24     1.57     8.30     0  02:02        1.55
  YS02001901           JUNCTION     0.32     1.68     8.29     0  02:03        1.67
  YS02001904           JUNCTION     0.31     1.64     8.27     0  02:02        1.63
  YS02001907           JUNCTION     0.61     1.96     8.25     0  02:02        1.96
  YS02001910           JUNCTION     0.41     1.97     8.47     0  02:02        1.91
  YS02001915           JUNCTION     0.27     1.91     8.63     0  02:02        1.82
  YS02001918           JUNCTION     0.14     1.81     8.88     0  02:02        1.65
  YS02001920           JUNCTION     0.22     2.14     9.15     0  02:02        1.71
  YS02001923           JUNCTION     0.10     2.03     9.29     0  02:02        1.46
  YS02001926           JUNCTION     0.15     1.90     9.35     0  02:02        1.28
  YS02001929           JUNCTION     0.08     1.73     9.42     0  02:02        1.04
  YS02006553           JUNCTION     0.61     2.04     8.32     0  02:05        2.03
  YS02006556           JUNCTION     0.58     2.11     8.42     0  02:05        2.08
  YS02006558           JUNCTION     0.63     2.18     8.45     0  02:05        2.14
  YS02006561           JUNCTION     0.13     1.35     8.01     0  02:05        1.28
  YS02163301           JUNCTION     0.42     1.91     8.43     0  02:03        1.90
  YS02163601           JUNCTION     0.51     2.03     8.43     0  02:03        2.01
  YS02164001           JUNCTION     0.44     1.95     8.41     0  02:03        1.92
  YSB1154              JUNCTION     0.39     1.95    11.00     0  01:59        1.86
  YSB1171              JUNCTION     0.56     1.95    10.85     0  01:59        1.95
  YSB1174              JUNCTION     0.36     1.80    10.91     0  01:59        1.78
  YSB6556              JUNCTION     0.31     1.80    10.96     0  01:59        1.72
  CC-1                 OUTFALL      0.00     0.00     0.00     0  00:00        0.00
  CC-2                 OUTFALL      0.00     0.00     0.00     0  00:00        0.00
  JK-1                 OUTFALL      0.00     0.00     0.00     0  00:00        0.00
  JK-2                 OUTFALL      0.00     0.00     0.00     0  00:00        0.00
  WSC                  OUTFALL      0.30     0.51     1.18     0  02:09        0.51
  CC-storage           STORAGE      0.82     1.67     7.17     0  02:27        1.67
  JK-storage           STORAGE      2.63     5.80     6.60     0  02:05        5.80
  XR-storage           STORAGE      7.56     8.66     6.66     0  06:00        8.66
  
  
  *******************
  Node Inflow Summary
  *******************
  
  -------------------------------------------------------------------------------------------------
                                  Maximum  Maximum                  Lateral       Total        Flow
                                  Lateral    Total  Time of Max      Inflow      Inflow     Balance
                                   Inflow   Inflow   Occurrence      Volume      Volume       Error
  Node                 Type           LPS      LPS  days hr:min    10^6 ltr    10^6 ltr     Percent
  -------------------------------------------------------------------------------------------------
  HS02004478           JUNCTION      0.00  2257.72     0  02:05           0         7.4      -0.008
  HS02004479           JUNCTION      0.00   470.35     0  02:02           0       0.786       0.101
  HS02004480           JUNCTION      0.00  2106.28     0  02:01           0        5.75       0.045
  HS02004770           JUNCTION   1084.41  1084.41     0  02:05        1.94        2.18       0.141
  HS02004777           JUNCTION      0.03   735.52     0  01:59    0.000648        1.74       0.310
  HS02004785           JUNCTION      0.15   751.73     0  01:59     0.00324        1.74       0.037
  HS02004788           JUNCTION    395.76   826.77     0  02:00       0.755        2.49       0.008
  HS02004792           JUNCTION   1301.31  2031.81     0  02:05        2.49        4.98       0.011
  HS02004799           JUNCTION    259.68  1754.17     0  02:00       0.432        4.99       0.057
  HS02004802           JUNCTION      0.00   804.32     0  02:05           0        1.68       0.240
  HS02004807           JUNCTION    325.10   802.54     0  02:05       0.529        1.73       0.245
  HS02004817           JUNCTION      0.60   480.49     0  02:05       0.013        1.26       1.324
  HS02004824           JUNCTION    401.77   637.40     0  02:00        0.93        1.44       0.041
  HS02004830           JUNCTION      0.15   637.50     0  02:00     0.00324       0.705       0.168
  HS02004837           JUNCTION    299.97   826.47     0  02:00       0.639        1.04       0.098
  HS02004842           JUNCTION      0.00   838.50     0  02:00           0       0.732       1.802
  HS02004848           JUNCTION    361.58  1091.65     0  02:01       0.879        1.45      -0.006
  HS02004852           JUNCTION      0.00  1081.58     0  02:02           0        1.31       0.005
  HS02004856           JUNCTION    131.97  1198.96     0  02:02       0.218        1.53       0.060
  HS02004862           JUNCTION    170.51  1234.45     0  02:02       0.375         1.9      -0.036
  HS02004870           JUNCTION    176.55  1356.56     0  02:02        0.29        2.19       0.028
  HS02004876           JUNCTION    171.82  1336.49     0  02:02       0.299        2.49       0.027
  HS02004881           JUNCTION     95.99  1422.03     0  02:02       0.153        2.64       0.002
  HS02004901           JUNCTION    264.88   491.96     0  02:05       0.437       0.638       0.302
  WS02001211           JUNCTION      7.35   207.08     0  02:45       0.159        4.02       0.828
  WS02001212           JUNCTION      0.00   214.03     0  02:45           0        3.98       0.395
  WS02001213           JUNCTION      0.00   217.96     0  02:44           0        3.97       0.459
  WS02003059           JUNCTION      0.00   224.37     0  02:44           0        3.96       0.825
  WS02003060           JUNCTION     16.53  1472.83     0  02:06       0.357        12.3       0.130
  WS02003066           JUNCTION      0.00  1270.25     0  02:05           0        8.03       0.024
  WS02003067           JUNCTION      0.00  1270.25     0  02:05           0        8.03       0.062
  WS02003069           JUNCTION      0.32  1473.04     0  02:07     0.00691        12.3       0.137
  WS02003072           JUNCTION      0.00  1472.86     0  02:07           0        12.3       0.183
  WS02003073           JUNCTION      1.82  1474.86     0  02:08      0.0393        12.3       0.196
  WS02004138           JUNCTION      0.00   190.00     0  00:29           0        3.88       0.084
  WS02004139           JUNCTION      0.32   191.33     0  00:29     0.00693        3.89       0.688
  WS02004401           JUNCTION      0.00  1271.81     0  02:05           0        8.16       0.155
  WS02004402           JUNCTION      0.00  1272.04     0  02:05           0        8.15       0.146
  WS02004403           JUNCTION      0.00  1272.44     0  02:05           0        8.14       0.141
  WS02004404           JUNCTION      0.16  1272.91     0  02:05      0.0035        8.13       0.116
  WS02004405           JUNCTION      0.04  1272.23     0  02:05    0.000823        8.12       0.164
  WS02004406           JUNCTION      0.00  1272.28     0  02:05           0        8.11       0.283
  WS02004407           JUNCTION      0.00  1271.92     0  02:05           0        8.08       0.025
  WS02004409           JUNCTION      0.00  1269.90     0  02:05           0        8.08       0.056
  WS02004410           JUNCTION      0.00  1270.21     0  02:05           0        8.07       0.077
  WS02004411           JUNCTION      0.00  1270.04     0  02:05           0        8.07       0.093
  WS02004412           JUNCTION      0.00  1269.97     0  02:05           0        8.06       0.118
  WS02004413           JUNCTION      0.00  1269.97     0  02:05           0        8.05       0.197
  WS02006109           JUNCTION      1.23  1308.01     0  00:00      0.0266        7.92       0.151
  WS02006110           JUNCTION      0.00  1122.58     0  02:17           0        7.76      -0.445
  WS02006111           JUNCTION      0.00  1176.04     0  00:00           0        7.79      -0.485
  WS02006112           JUNCTION    215.35  2307.30     0  00:00       0.359        8.19       0.010
  WS02006113           JUNCTION      0.00  1122.61     0  02:17           0        7.75      -0.581
  WS02006115           JUNCTION      0.00  2152.75     0  00:00           0        8.17       0.068
  WS02006116           JUNCTION      0.00  1272.29     0  02:05           0        8.16       0.039
  WS02006228           JUNCTION      0.00  1264.96     0  02:05           0        7.88       0.087
  WS02006229           JUNCTION      0.00  2258.52     0  02:05           0        9.65       0.081
  WS02006230           JUNCTION     10.28  1003.36     0  02:05       0.222        4.06       0.072
  WS02006231           JUNCTION      0.00   453.32     0  02:06           0        3.17      -0.049
  WS02006232           JUNCTION      0.00   453.47     0  02:06           0        3.18       0.220
  WS02006234           JUNCTION      0.00   453.10     0  02:06           0        3.17      -0.099
  WS02006235           JUNCTION      0.00   414.94     0  02:10           0        3.22       0.128
  WS02006238           JUNCTION      0.00   415.72     0  02:12           0        2.93      -0.060
  WS02006239           JUNCTION      0.00   414.90     0  02:12           0        2.91      -0.042
  WS02006240           JUNCTION      0.00   414.76     0  02:12           0        2.89      -0.001
  WS02006242           JUNCTION      0.00   414.69     0  01:59           0        2.88       0.065
  WS02006243           JUNCTION      0.00   412.35     0  03:30           0        2.55      -0.011
  WS02006245           JUNCTION      0.00   412.34     0  03:30           0        2.55       0.126
  WS02006247           JUNCTION      0.00   412.33     0  03:30           0        2.54       0.020
  WS02006248           JUNCTION      0.00   412.27     0  03:30           0        2.75       0.031
  WS02006249           JUNCTION      0.00  1335.06     0  02:02           0        5.51       0.038
  WS02006251           JUNCTION      0.08  1446.81     0  02:02     0.00166        5.53      -0.013
  WS02006252           JUNCTION      0.00   400.00     0  02:10           0        3.01      -0.033
  WS02006253           JUNCTION     24.72  1445.63     0  02:02       0.037        2.68       0.025
  WS02006256           JUNCTION      0.00   300.00     0  01:50           0       0.926       0.009
  WS02006280           JUNCTION      0.00  2257.36     0  02:05           0        7.38       0.008
  WS02006284           JUNCTION      0.10  2257.48     0  02:05     0.00207        7.38      -0.004
  WS02006287           JUNCTION      0.00  2258.30     0  02:05           0        7.38       0.011
  WSF200               JUNCTION      0.00  1270.32     0  02:05           0        8.03       0.015
  YS02001580           JUNCTION      0.00   123.92     0  01:59           0     0.00434       0.010
  YS02001583           JUNCTION      0.00   184.98     0  01:59           0      0.0153      -5.701
  YS02001586           JUNCTION    455.80   455.80     0  02:05         1.2        1.21       0.128
  YS02001590           JUNCTION      0.00   317.95     0  02:10           0        1.11      -0.024
  YS02001593           JUNCTION      0.00   318.11     0  02:10           0        1.11      -0.000
  YS02001596           JUNCTION      0.00   317.94     0  02:10           0        1.11      -0.002
  YS02001600           JUNCTION      0.00   318.06     0  02:09           0        1.11       0.010
  YS02001601           JUNCTION    863.35  1180.70     0  02:05         1.7        2.81       0.038
  YS02001602           JUNCTION      0.00   522.69     0  01:58           0        2.02       0.037
  YS02001605           JUNCTION      0.00   521.83     0  01:58           0        1.94       0.039
  YS02001607           JUNCTION      0.00   522.62     0  01:58           0        1.94       0.121
  YS02001610           JUNCTION      0.00   531.86     0  01:58           0        1.93       0.139
  YS02001613           JUNCTION      0.00   536.55     0  01:58           0        1.69       0.113
  YS02001616           JUNCTION      0.00   543.26     0  01:58           0        1.69       0.044
  YS02001619           JUNCTION    814.02   923.84     0  02:01        1.91         3.6       0.005
  YS02001622           JUNCTION      0.00   931.35     0  01:58           0         3.6       0.015
  YS02001625           JUNCTION      0.00   940.76     0  01:58           0        3.61       0.289
  YS02001629           JUNCTION      0.00   941.57     0  01:58           0        3.06       0.027
  YS02001633           JUNCTION    647.00  1377.30     0  02:01        1.23        4.27       0.094
  YS02001641           JUNCTION      0.00  1375.16     0  02:01           0        4.26       0.073
  YS02001644           JUNCTION    580.42  1791.78     0  02:01        1.07        5.32       0.073
  YS02001647           JUNCTION      0.00  1791.58     0  02:01           0        5.28       0.012
  YS02001649           JUNCTION      0.00  2009.83     0  02:01           0        6.24       0.005
  YS02001652           JUNCTION      0.00   649.76     0  02:05           0       0.963      -0.099
  YS02001655           JUNCTION      0.15   647.37     0  02:05     0.00332       0.963       0.039
  YS02001658           JUNCTION      0.00   645.78     0  02:05           0       0.959      -0.055
  YS02001661           JUNCTION      0.00   778.97     0  02:05           0       0.959       0.018
  YS02001664           JUNCTION    566.22   566.22     0  02:05       0.959       0.959      -0.008
  YS02001745           JUNCTION    367.87   387.14     0  02:03       0.591       0.591       0.252
  YS02001748           JUNCTION      0.04   600.56     0  02:03    0.000972       0.591      -0.435
  YS02001751           JUNCTION      0.01   386.78     0  02:04    0.000238       0.598       0.145
  YS02001754           JUNCTION      0.26   387.11     0  02:04     0.00562       0.611      -0.174
  YS02001757           JUNCTION      0.00  3186.53     0  02:04           0        8.93       0.042
  YS02001759           JUNCTION    509.00  1224.75     0  02:05       0.813        2.07      -0.013
  YS02001762           JUNCTION      0.00   721.29     0  02:05           0        1.26      -0.002
  YS02001765           JUNCTION      0.00   720.06     0  02:05           0        1.26       0.013
  YS02001767           JUNCTION      0.54   719.09     0  02:05      0.0116        1.26       0.009
  YS02001770           JUNCTION    719.68   719.68     0  02:05        1.25        1.29      -0.014
  YS02001774           JUNCTION      0.00   389.16     0  02:02           0      0.0626       1.884
  YS02001779           JUNCTION      0.01   393.45     0  02:02    0.000108      0.0198      -4.324
  YS02001783           JUNCTION      0.00  1154.40     0  02:05           0        3.39       0.007
  YS02001784           JUNCTION      1.06  1155.29     0  02:04      0.0229        3.41       0.016
  YS02001786           JUNCTION      0.06  1155.09     0  02:05     0.00122        3.41       0.016
  YS02001788           JUNCTION      0.07  1155.26     0  02:04     0.00153        3.41       0.003
  YS02001790           JUNCTION      0.15  1198.06     0  02:11     0.00335        3.42      -0.041
  YS02001791           JUNCTION      0.00  1354.27     0  02:11           0        3.42      -0.011
  YS02001793           JUNCTION      0.00  1409.37     0  02:11           0        3.42      -0.039
  YS02001882           JUNCTION      0.00    63.33     0  02:00           0      0.0136       6.018
  YS02001884           JUNCTION      0.00    73.95     0  02:00           0      0.0498       5.715
  YS02001887           JUNCTION    549.51   549.60     0  02:05       0.857       0.891       0.530
  YS02001890           JUNCTION      0.00   548.91     0  02:05           0       0.849       0.634
  YS02001895           JUNCTION      0.00   511.23     0  02:05           0       0.838       0.191
  YS02001898           JUNCTION      0.00   511.33     0  02:05           0       0.836       0.060
  YS02001901           JUNCTION      0.00   510.70     0  02:05           0       0.839       0.412
  YS02001904           JUNCTION      0.00   511.79     0  02:05           0       0.842       0.369
  YS02001907           JUNCTION      0.00  1501.60     0  02:03           0         2.7       0.673
  YS02001910           JUNCTION      0.00  1011.18     0  02:03           0        1.87       0.395
  YS02001915           JUNCTION    629.86  1010.92     0  02:03        1.19        1.91       0.097
  YS02001918           JUNCTION      0.00   441.48     0  02:03           0       0.754       0.031
  YS02001920           JUNCTION      2.87   440.67     0  02:03       0.062       0.737       0.129
  YS02001923           JUNCTION      0.04   449.47     0  02:02    0.000814       0.659      -0.102
  YS02001926           JUNCTION      0.05   634.81     0  02:02     0.00113       0.639      -0.157
  YS02001929           JUNCTION    300.54   443.47     0  02:02       0.624       0.626      -0.037
  YS02006553           JUNCTION      0.00   790.31     0  02:17           0        2.19       0.556
  YS02006556           JUNCTION      0.00   790.13     0  02:17           0         2.2       0.373
  YS02006558           JUNCTION    736.85  1157.20     0  02:02        1.25        3.42       0.113
  YS02006561           JUNCTION      0.00  1155.87     0  02:02           0        3.39      -0.005
  YS02163301           JUNCTION      0.00   921.09     0  02:01           0        3.05       0.057
  YS02163601           JUNCTION      0.11  1377.04     0  02:01     0.00238        4.26       0.127
  YS02164001           JUNCTION      0.00  1377.48     0  02:01           0        4.26       0.064
  YSB1154              JUNCTION    296.95   296.95     0  02:05       0.516       0.517       0.298
  YSB1171              JUNCTION      0.00   556.36     0  02:05           0       0.916       0.700
  YSB1174              JUNCTION    257.78   257.78     0  02:05       0.392       0.393       0.334
  YSB6556              JUNCTION      0.00   297.18     0  02:05           0       0.518       0.232
  CC-1                 OUTFALL       0.00   683.00     0  02:10           0        3.28       0.000
  CC-2                 OUTFALL       0.00   683.00     0  02:10           0        3.28       0.000
  JK-1                 OUTFALL       0.00  1000.00     0  01:50           0        1.71       0.000
  JK-2                 OUTFALL       0.00  1000.00     0  01:50           0        1.71       0.000
  WSC                  OUTFALL       0.00  1475.09     0  02:09           0        12.3       0.000
  CC-storage           STORAGE       0.00  3186.99     0  02:04           0        11.1      -0.222
  JK-storage           STORAGE       0.00  1688.20     0  02:11           0        3.57     -25.200
  XR-storage           STORAGE     200.00   200.00     0  00:00        4.32        4.92       0.001
  
  
  **********************
  Node Surcharge Summary
  **********************
  
  Surcharging occurs when water rises above the top of the highest conduit.
  ---------------------------------------------------------------------
                                               Max. Height   Min. Depth
                                   Hours       Above Crown    Below Rim
  Node                 Type      Surcharged         Meters       Meters
  ---------------------------------------------------------------------
  HS02004478           JUNCTION        0.36          0.671        0.269
  HS02004479           JUNCTION        0.48          0.900        0.150
  HS02004480           JUNCTION        0.52          0.971        0.129
  HS02004770           JUNCTION        0.43          0.720        0.000
  HS02004777           JUNCTION        0.44          0.780        0.000
  HS02004785           JUNCTION        0.38          0.790        0.000
  HS02004788           JUNCTION        0.37          0.720        0.000
  HS02004792           JUNCTION        0.49          0.900        0.000
  HS02004799           JUNCTION        0.60          1.060        0.000
  HS02004802           JUNCTION        0.52          1.089        0.121
  HS02004807           JUNCTION        0.51          1.220        0.000
  HS02004817           JUNCTION        1.08          1.719        0.021
  HS02004824           JUNCTION        0.38          1.299        0.011
  HS02004830           JUNCTION        0.35          1.309        0.021
  HS02004837           JUNCTION        0.31          1.277        0.063
  HS02004842           JUNCTION        0.44          1.520        0.000
  HS02004848           JUNCTION        0.28          1.370        0.000
  HS02004852           JUNCTION        0.30          1.420        0.000
  HS02004856           JUNCTION        0.29          1.300        0.000
  HS02004862           JUNCTION        0.32          1.300        0.000
  HS02004870           JUNCTION        0.34          1.400        0.000
  HS02004876           JUNCTION        0.41          1.244        0.316
  HS02004881           JUNCTION        0.39          1.195        0.255
  HS02004901           JUNCTION        0.44          0.720        0.000
  WS02004401           JUNCTION        1.50          0.785        0.875
  WS02004402           JUNCTION        1.53          0.731        1.009
  WS02004403           JUNCTION        1.54          0.660        1.370
  WS02004404           JUNCTION        1.72          0.676        2.104
  WS02004405           JUNCTION        1.68          0.625        2.175
  WS02004406           JUNCTION        1.65          0.520        1.930
  WS02004409           JUNCTION        0.85          0.349        2.011
  WS02004410           JUNCTION        0.83          0.268        2.272
  WS02004411           JUNCTION        0.75          0.183        2.347
  WS02004412           JUNCTION        0.63          0.089        2.221
  WS02004413           JUNCTION        1.24          0.135        2.065
  WS02006109           JUNCTION        2.07          1.820        0.000
  WS02006110           JUNCTION        1.92          1.456        0.394
  WS02006111           JUNCTION        1.13          0.852        1.018
  WS02006112           JUNCTION        1.97          1.680        0.000
  WS02006113           JUNCTION        1.16          0.965        0.965
  WS02006115           JUNCTION        1.45          0.859        1.391
  WS02006116           JUNCTION        1.46          0.810        1.480
  WS02006228           JUNCTION        2.07          2.200        0.000
  WS02006229           JUNCTION        0.79          1.057        0.013
  WS02006230           JUNCTION        1.79          1.570        0.000
  WS02006231           JUNCTION        1.87          1.479        0.051
  WS02006232           JUNCTION        1.95          1.480        0.000
  WS02006234           JUNCTION        1.87          1.240        0.000
  WS02006235           JUNCTION        1.89          1.261        0.029
  WS02006238           JUNCTION        1.90          1.265        0.165
  WS02006239           JUNCTION        1.87          1.098        0.192
  WS02006240           JUNCTION        1.86          0.952        0.438
  WS02006242           JUNCTION        1.87          0.820        0.000
  WS02006243           JUNCTION        1.83          0.668        0.102
  WS02006245           JUNCTION        1.82          0.566        0.284
  WS02006247           JUNCTION        1.82          0.521        0.239
  WS02006248           JUNCTION        1.80          0.380        0.000
  WS02006249           JUNCTION        1.81          0.390        0.000
  WS02006251           JUNCTION        1.77          1.180        0.000
  WS02006252           JUNCTION        1.77          1.100        0.000
  WS02006253           JUNCTION        1.77          1.949        0.531
  WS02006256           JUNCTION        5.09          2.050        0.000
  WS02006280           JUNCTION        0.62          0.710        0.070
  WS02006284           JUNCTION        0.54          0.678        0.122
  WS02006287           JUNCTION        0.46          0.748        0.142
  YS02001580           JUNCTION        0.43          0.450        0.000
  YS02001583           JUNCTION        0.44          0.500        0.000
  YS02001586           JUNCTION        0.59          0.510        0.000
  YS02001590           JUNCTION        0.66          0.745        0.005
  YS02001593           JUNCTION        0.67          0.693        0.147
  YS02001596           JUNCTION        0.77          0.944        0.126
  YS02001600           JUNCTION        0.92          1.190        0.000
  YS02001601           JUNCTION        1.30          1.440        0.000
  YS02001602           JUNCTION        1.17          1.270        0.000
  YS02001605           JUNCTION        1.11          1.180        0.000
  YS02001607           JUNCTION        0.65          0.658        0.022
  YS02001610           JUNCTION        0.68          0.680        0.000
  YS02001613           JUNCTION        0.65          0.693        0.007
  YS02001616           JUNCTION        0.60          0.610        0.000
  YS02001619           JUNCTION        0.59          0.610        0.000
  YS02001622           JUNCTION        0.59          0.583        0.037
  YS02001625           JUNCTION        0.77          0.780        0.000
  YS02001629           JUNCTION        0.55          0.470        0.000
  YS02001633           JUNCTION        0.79          0.986        0.074
  YS02001641           JUNCTION        0.74          0.951        0.149
  YS02001644           JUNCTION        0.72          0.920        0.000
  YS02001647           JUNCTION        0.52          0.726        0.174
  YS02001649           JUNCTION        0.64          0.920        0.130
  YS02001652           JUNCTION        0.45          0.802        0.328
  YS02001655           JUNCTION        0.30          0.818        0.382
  YS02001658           JUNCTION        0.12          0.741        0.559
  YS02001748           JUNCTION        0.01          0.610        0.580
  YS02001751           JUNCTION        0.19          0.668        0.532
  YS02001754           JUNCTION        0.36          0.689        0.461
  YS02001757           JUNCTION        0.70          0.981        0.229
  YS02001759           JUNCTION        0.61          0.923        0.287
  YS02001762           JUNCTION        0.58          0.890        0.260
  YS02001765           JUNCTION        0.53          0.862        0.238
  YS02001767           JUNCTION        0.50          0.848        0.182
  YS02001770           JUNCTION        0.47          0.856        0.064
  YS02001774           JUNCTION        0.56          0.958        0.092
  YS02001779           JUNCTION        0.36          0.680        0.000
  YS02001783           JUNCTION        0.49          0.986        0.614
  YS02001784           JUNCTION        0.47          0.975        0.515
  YS02001786           JUNCTION        0.36          0.827        0.603
  YS02001788           JUNCTION        0.14          0.767        0.713
  YS02001790           JUNCTION        0.17          0.940        0.217
  YS02001791           JUNCTION        0.19          0.870        1.050
  YS02001793           JUNCTION        0.29          0.909        1.691
  YS02001882           JUNCTION        0.37          0.684        0.146
  YS02001884           JUNCTION        0.38          0.713        0.157
  YS02001887           JUNCTION        0.41          0.780        0.170
  YS02001890           JUNCTION        0.43          0.760        0.000
  YS02001895           JUNCTION        0.36          0.568        0.182
  YS02001898           JUNCTION        0.35          0.538        0.202
  YS02001901           JUNCTION        0.40          0.676        0.194
  YS02001904           JUNCTION        0.39          0.640        0.210
  YS02001907           JUNCTION        0.64          0.950        0.000
  YS02001910           JUNCTION        0.45          0.967        0.133
  YS02001915           JUNCTION        0.37          0.913        0.087
  YS02001918           JUNCTION        0.28          0.810        0.000
  YS02001920           JUNCTION        0.29          1.140        0.000
  YS02001923           JUNCTION        0.01          0.820        0.000
  YS02001926           JUNCTION        0.01          0.900        0.000
  YS02001929           JUNCTION        0.01          0.729        0.051
  YS02006553           JUNCTION        0.65          1.041        0.149
  YS02006556           JUNCTION        0.55          1.067        0.283
  YS02006558           JUNCTION        0.53          1.083        0.317
  YS02006561           JUNCTION        0.25          0.546        0.604
  YS02163301           JUNCTION        0.78          0.913        0.117
  YS02163601           JUNCTION        0.82          1.032        0.048
  YS02164001           JUNCTION        0.75          0.952        0.148
  YSB1154              JUNCTION        0.71          1.246        0.154
  YSB1171              JUNCTION        0.71          1.100        0.000
  YSB1174              JUNCTION        0.63          1.100        0.150
  YSB6556              JUNCTION        0.57          1.095        0.005
  
  
  *********************
  Node Flooding Summary
  *********************
  
  Flooding refers to all water that overflows a node, whether it ponds or not.
  --------------------------------------------------------------------------
                                                             Total   Maximum
                                 Maximum   Time of Max       Flood    Ponded
                        Hours       Rate    Occurrence      Volume     Depth
  Node                 Flooded       LPS   days hr:min    10^6 ltr    Meters
  --------------------------------------------------------------------------
  HS02004770              0.24    523.59      0  02:05       0.239     0.000
  HS02004777              0.01     48.10      0  01:59       0.000     0.000
  HS02004785              0.01    105.52      0  01:59       0.000     0.000
  HS02004788              0.01    163.76      0  01:59       0.001     0.000
  HS02004792              0.25    889.11      0  02:05       0.427     0.000
  HS02004799              0.07    102.48      0  02:02       0.010     0.000
  HS02004807              0.01     26.68      0  02:02       0.000     0.000
  HS02004842              0.01    108.67      0  02:02       0.001     0.000
  HS02004848              0.01     55.05      0  02:02       0.000     0.000
  HS02004852              0.01    199.71      0  02:02       0.001     0.000
  HS02004856              0.01     34.95      0  02:02       0.000     0.000
  HS02004862              0.01    112.32      0  02:02       0.001     0.000
  HS02004870              0.01    198.14      0  02:02       0.000     0.000
  HS02004901              0.31    491.89      0  02:05       0.399     0.000
  WS02006109              0.29    209.65      0  02:05       0.131     0.000
  WS02006112              0.01   1153.65      0  00:00       0.035     0.000
  WS02006228              0.01      2.44      0  02:02       0.000     0.000
  WS02006230              0.55    550.50      0  02:05       0.687     0.000
  WS02006232              0.13      0.75      0  02:12       0.000     0.000
  WS02006234              0.62    128.39      0  02:12       0.175     0.000
  WS02006242              0.75    136.93      0  02:20       0.312     0.000
  WS02006248              0.95    342.75      0  01:55       1.011     0.000
  WS02006249              1.76   1273.63      0  02:02       3.574     0.000
  WS02006251              0.01     37.15      0  02:02       0.000     0.000
  WS02006252              0.34    313.24      0  02:02       0.170     0.000
  WS02006256              0.85    293.18      0  02:10       0.431     0.000
  YS02001580              0.01     97.93      0  01:59       0.000     0.000
  YS02001583              0.01    122.68      0  01:59       0.000     0.000
  YS02001586              0.31    138.37      0  02:05       0.090     0.000
  YS02001600              0.01      1.20      0  01:59       0.000     0.000
  YS02001601              0.52    782.90      0  02:05       0.785     0.000
  YS02001602              0.43     61.95      0  02:14       0.084     0.000
  YS02001605              0.01      5.16      0  01:58       0.000     0.000
  YS02001610              0.35    303.70      0  02:07       0.239     0.000
  YS02001616              0.01     18.45      0  01:59       0.000     0.000
  YS02001619              0.01     13.89      0  01:59       0.000     0.000
  YS02001625              0.33    917.78      0  02:06       0.548     0.000
  YS02001629              0.05    162.95      0  01:59       0.008     0.000
  YS02001644              0.05    299.91      0  02:05       0.029     0.000
  YS02001779              0.01    326.70      0  02:02       0.003     0.000
  YS02001890              0.06     41.07      0  02:05       0.006     0.000
  YS02001907              0.23   1088.81      0  02:06       0.506     0.000
  YS02001918              0.01    189.29      0  02:02       0.002     0.000
  YS02001920              0.01     50.45      0  02:02       0.000     0.000
  YS02001923              0.01     58.85      0  02:02       0.000     0.000
  YS02001926              0.01    293.44      0  02:02       0.002     0.000
  YSB1171                 0.15    430.15      0  02:05       0.131     0.000
  JK-storage              0.13   1048.15      0  02:06       0.406     0.000
  
  
  **********************
  Storage Volume Summary
  **********************
  
  --------------------------------------------------------------------------------------------------
                         Average     Avg  Evap Exfil       Maximum     Max    Time of Max    Maximum
                          Volume    Pcnt  Pcnt  Pcnt        Volume    Pcnt     Occurrence    Outflow
  Storage Unit           1000 m3    Full  Loss  Loss       1000 m3    Full    days hr:min        LPS
  --------------------------------------------------------------------------------------------------
  CC-storage               2.288      36     0     0         4.642      72       0  02:27    1766.00
  JK-storage               0.132      45     0     0         0.291     100       0  02:05    2300.00
  XR-storage               0.907      63     0     0         1.039      72       0  06:00     190.00
  
  
  ***********************
  Outfall Loading Summary
  ***********************
  
  -----------------------------------------------------------
                         Flow       Avg       Max       Total
                         Freq      Flow      Flow      Volume
  Outfall Node           Pcnt       LPS       LPS    10^6 ltr
  -----------------------------------------------------------
  CC-1                  24.40    683.00    683.00       3.284
  CC-2                  24.40    683.00    683.00       3.284
  JK-1                  13.15    734.14   1000.00       1.715
  JK-2                  13.15    734.14   1000.00       1.715
  WSC                   99.99    617.77   1475.09      12.267
  -----------------------------------------------------------
  System                35.02   3452.06   1475.09      22.265
  
  
  ********************
  Link Flow Summary
  ********************
  
  -----------------------------------------------------------------------------
                                 Maximum  Time of Max   Maximum    Max/    Max/
                                  |Flow|   Occurrence   |Veloc|    Full    Full
  Link                 Type          LPS  days hr:min     m/sec    Flow   Depth
  -----------------------------------------------------------------------------
  1                    CONDUIT   1475.09     0  02:09      3.68    0.51    0.51
  HS02004478WS02006287 CONDUIT   2258.30     0  02:05      2.58    0.63    1.00
  HS02004479HS02004480 CONDUIT    473.77     0  02:02      0.68    0.46    1.00
  HS02004480HS02004478 CONDUIT   2100.69     0  02:01      3.00    8.85    1.00
  HS02004770HS02004777 CONDUIT    735.49     0  01:59      1.05    1.35    1.00
  HS02004777HS02004785 CONDUIT    751.58     0  01:59      1.12    0.92    1.00
  HS02004785HS02004788 CONDUIT    618.71     0  02:18      1.35    4.66    1.00
  HS02004788HS02004792 CONDUIT    826.38     0  02:00      1.45    0.55    1.00
  HS02004792HS02004799 CONDUIT   1585.46     0  02:00      2.26    0.97    1.00
  HS02004799HS02004480 CONDUIT   1751.90     0  02:00      2.50    2.21    1.00
  HS02004802HS02004478 CONDUIT    804.86     0  02:05      1.15    0.71    1.00
  HS02004807HS02004802 CONDUIT    804.32     0  02:05      1.15    1.54    1.00
  HS02004817HS02004807 CONDUIT    481.69     0  02:05      0.69    0.29    1.00
  HS02004817HS02004824 CONDUIT    479.89     0  02:05      0.69    0.22    1.00
  HS02004824HS02004830 CONDUIT    637.35     0  02:00      0.91    0.83    1.00
  HS02004830HS02004837 CONDUIT    640.85     0  02:00      1.00    0.64    1.00
  HS02004837HS02004842 CONDUIT    838.50     0  02:00      1.20    0.50    1.00
  HS02004842HS02004848 CONDUIT    837.49     0  02:00      1.32    0.49    1.00
  HS02004848HS02004852 CONDUIT   1081.58     0  02:02      1.62    1.22    1.00
  HS02004852HS02004856 CONDUIT   1091.44     0  02:02      1.56    1.25    1.00
  HS02004856HS02004862 CONDUIT   1102.56     0  02:02      1.72    1.10    1.00
  HS02004862HS02004870 CONDUIT   1213.15     0  02:02      1.93    1.31    1.00
  HS02004870HS02004876 CONDUIT   1192.21     0  02:02      1.82    0.79    1.00
  HS02004876HS02004881 CONDUIT   1338.75     0  02:02      2.37   14.24    1.00
  HS02004881HS02006253 CONDUIT   1423.19     0  02:02      2.03    0.28    1.00
  HS02004901HS02004770 CONDUIT    265.61     0  02:13      0.38    1.00    1.00
  WS02001211WS02001212 CONDUIT    214.03     0  02:45      0.54    0.16    0.68
  WS02001212WS02001213 CONDUIT    217.96     0  02:44      1.04    0.34    0.55
  WS02001213WS02003059 CONDUIT    224.37     0  02:44      0.47    0.37    0.88
  WS02003059WS02003060 CONDUIT    229.91     0  02:43      0.67    0.15    0.80
  WS02003060WS02003069 CONDUIT   1472.72     0  02:07      2.07    0.58    0.60
  WS02003066WSF200     CONDUIT   1270.32     0  02:05      3.24    0.21    0.38
  WS02003067WS02003066 CONDUIT   1270.25     0  02:05      1.97    0.41    0.55
  WS02003069WS02003072 CONDUIT   1472.86     0  02:07      1.88    0.71    0.65
  WS02003072WS02003073 CONDUIT   1473.04     0  02:08      2.04    3.18    0.61
  WS02004138WS02004139 CONDUIT    191.01     0  00:29      2.14    0.04    0.41
  WS02004139WS02001211 CONDUIT    199.73     0  02:45      0.53    0.25    0.60
  WS02004401WS02004402 CONDUIT   1272.04     0  02:05      2.07    1.53    1.00
  WS02004402WS02004403 CONDUIT   1272.44     0  02:05      1.84    1.83    1.00
  WS02004403WS02004404 CONDUIT   1272.75     0  02:05      1.66    0.92    1.00
  WS02004404WS02004405 CONDUIT   1272.19     0  02:05      1.85   12.46    1.00
  WS02004405WS02004406 CONDUIT   1272.28     0  02:05      1.73    2.51    1.00
  WS02004406WS02004407 CONDUIT   1271.92     0  02:05      1.71    0.57    0.94
  WS02004407WS02004409 CONDUIT   1269.90     0  02:05      1.71    0.45    0.94
  WS02004409WS02004410 CONDUIT   1270.21     0  02:05      1.62    1.64    1.00
  WS02004410WS02004411 CONDUIT   1270.04     0  02:05      1.62    1.73    1.00
  WS02004411WS02004412 CONDUIT   1269.97     0  02:05      1.62    1.80    1.00
  WS02004412WS02004413 CONDUIT   1269.97     0  02:05      1.62    0.85    1.00
  WS02004413WS02003067 CONDUIT   1270.25     0  02:05      1.98    0.54    0.76
  WS02006109WS02006110 CONDUIT   1306.78     0  00:00      3.15    2.51    1.00
  WS02006110WS02006113 CONDUIT   1122.61     0  02:17      2.23    1.02    1.00
  WS02006111WS02006112 CONDUIT   2307.30     0  00:00      9.18    1.10    1.00
  WS02006112WS02006115 CONDUIT   2152.75     0  00:00      2.85    1.27    1.00
  WS02006113WS02006111 CONDUIT   1176.04     0  00:00      2.61    1.41    1.00
  WS02006115WS02006116 CONDUIT   1272.29     0  02:05      1.81    1.63    1.00
  WS02006116WS02004401 CONDUIT   1271.81     0  02:05      2.21    1.75    1.00
  WS02006228WS02006109 CONDUIT   1264.42     0  02:05      2.52    5.52    1.00
  WS02006229WS02006228 CONDUIT   1264.96     0  02:05      2.52    4.19    1.00
  WS02006230WS02006229 CONDUIT    993.08     0  02:05      2.58   22.10    1.00
  WS02006231WS02006230 CONDUIT    453.32     0  02:06      1.30    6.88    1.00
  WS02006232WS02006231 CONDUIT    453.47     0  02:06      1.18    0.95    1.00
  WS02006234WS02006232 CONDUIT    453.10     0  02:06      1.18    0.92    1.00
  WS02006235WS02006234 CONDUIT    415.08     0  03:10      1.08    4.38    1.00
  WS02006238WS02006235 CONDUIT    415.72     0  02:12      1.33    0.93    1.00
  WS02006239WS02006238 CONDUIT    414.90     0  02:12      1.08    1.33    1.00
  WS02006240WS02006239 CONDUIT    414.76     0  02:12      1.09    1.31    1.00
  WS02006242WS02006240 CONDUIT    414.69     0  01:59      1.08    1.65    1.00
  WS02006243WS02006242 CONDUIT    412.36     0  03:30      1.13    0.88    1.00
  WS02006245WS02006243 CONDUIT    412.35     0  03:30      1.13    1.22    1.00
  WS02006247WS02006245 CONDUIT    412.34     0  03:30      1.07    3.27    1.00
  WS02006248WS02006247 CONDUIT    412.33     0  03:30      1.12    0.90    1.00
  WS02006249WS02006248 CONDUIT    412.27     0  03:30      1.07    2.26    1.00
  WS02006251WS02006249 CONDUIT   1335.06     0  02:02      3.47    3.85    1.00
  WS02006252WS02006251 CONDUIT    407.74     0  02:31      3.79    1.50    1.00
  WS02006253WS02006251 CONDUIT   1446.73     0  02:02      3.76    4.34    1.00
  WS02006256WS02006235 CONDUIT    288.08     0  05:11      4.18    3.05    1.00
  WS02006280WS02006229 CONDUIT   2258.52     0  02:05      4.02    0.48    1.00
  WS02006284WS02006280 CONDUIT   2257.36     0  02:05      2.96    0.95    1.00
  WS02006287WS02006284 CONDUIT   2257.38     0  02:05      2.87    1.05    1.00
  WSF200WS02003060     CONDUIT   1269.95     0  02:06      2.29    0.28    0.49
  YS02001580YS02001583 CONDUIT    123.92     0  01:59      0.73    0.48    1.00
  YS02001583YS02001586 CONDUIT    163.41     0  01:59      0.73    0.25    1.00
  YS02001586YS02001590 CONDUIT    317.95     0  02:10      1.25    0.56    1.00
  YS02001590YS02001593 CONDUIT    318.11     0  02:10      1.13    2.00    1.00
  YS02001593YS02001596 CONDUIT    317.94     0  02:10      1.72    0.50    1.00
  YS02001596YS02001600 CONDUIT    318.06     0  02:09      1.21    0.62    1.00
  YS02001600YS02001601 CONDUIT    317.91     0  02:09      1.12    0.55    1.00
  YS02001601YS02001602 CONDUIT    522.69     0  01:58      1.85    1.89    1.00
  YS02001602YS02001605 CONDUIT    521.83     0  01:58      1.85   11.04    1.00
  YS02001605YS02001607 CONDUIT    522.62     0  01:58      1.85    2.87    1.00
  YS02001607YS02001610 CONDUIT    531.86     0  01:58      0.68    0.51    1.00
  YS02001610YS02001613 CONDUIT    536.55     0  01:58      0.68    0.62    1.00
  YS02001613YS02001616 CONDUIT    543.26     0  01:58      0.70    0.47    1.00
  YS02001616YS02001619 CONDUIT    507.61     0  01:58      0.68    0.88    1.00
  YS02001619YS02001622 CONDUIT    931.35     0  01:58      1.19    1.37    1.00
  YS02001622YS02001625 CONDUIT    940.76     0  01:58      1.20    0.50    1.00
  YS02001625YS02001629 CONDUIT    941.57     0  01:58      1.20    0.45    1.00
  YS02001629YS02163301 CONDUIT    921.09     0  02:01      1.17    1.13    1.00
  YS02001633YS02163601 CONDUIT   1376.93     0  02:01      1.75    1.45    1.00
  YS02001641YS02001644 CONDUIT   1375.27     0  02:01      1.75    4.45    1.00
  YS02001644YS02001647 CONDUIT   1791.58     0  02:01      2.28    1.05    1.00
  YS02001647YS02001649 CONDUIT   1787.81     0  02:01      2.30    0.94    1.00
  YS02001649YS02001757 CONDUIT   1969.53     0  02:01      2.52    1.20    1.00
  YS02001652YS02001649 CONDUIT    653.91     0  02:05      0.83    0.32    1.00
  YS02001655YS02001652 CONDUIT    649.76     0  02:05      1.34    0.32    1.00
  YS02001658YS02001655 CONDUIT    647.22     0  02:05      1.92    0.27    1.00
  YS02001661YS02001658 CONDUIT    645.78     0  02:05      2.33    0.25    1.00
  YS02001664YS02001661 CONDUIT    778.97     0  02:05      2.29    0.24    0.71
  YS02001745YS02001748 CONDUIT    600.51     0  02:03      2.19    0.23    0.83
  YS02001748YS02001751 CONDUIT    386.77     0  02:04      1.68    0.20    1.00
  YS02001751YS02001754 CONDUIT    386.85     0  02:04      1.44    0.19    1.00
  YS02001754YS02001757 CONDUIT    387.51     0  02:04      0.50    0.16    1.00
  YS02001757CaochengTiaoxuchi CONDUIT   3186.99     0  02:04      4.06    1.38    1.00
  YS02001759YS02001757 CONDUIT   1226.06     0  02:05      1.56    0.87    1.00
  YS02001762YS02001759 CONDUIT    721.09     0  02:05      0.92    0.83    1.00
  YS02001765YS02001762 CONDUIT    721.29     0  02:05      0.92    0.68    1.00
  YS02001767YS02001765 CONDUIT    720.06     0  02:05      0.92    0.91    1.00
  YS02001770YS02001767 CONDUIT    718.55     0  02:05      0.91    2.85    1.00
  YS02001774YS02001770 CONDUIT    389.16     0  02:02      0.50    0.25    1.00
  YS02001779YS02001774 CONDUIT    393.44     0  02:02      0.51    0.20    1.00
  YS02001783YS02001784 CONDUIT   1154.23     0  02:04      2.30    1.59    1.00
  YS02001784YS02001785 CONDUIT   1155.03     0  02:05      2.30    2.69    1.00
  YS02001786YS02001788 CONDUIT   1155.19     0  02:04      2.46    2.23    1.00
  YS02001788YS02001790 CONDUIT   1197.91     0  02:11      2.69    0.88    1.00
  YS02001790YS02001791 CONDUIT   1354.27     0  02:11      3.45    1.47    1.00
  YS02001791YS02001793 CONDUIT   1409.37     0  02:11      6.74    0.61    1.00
  YS02001793JiankangQianchi CONDUIT   1688.20     0  02:11     24.14    0.13    1.00
  YS02001882YS02001884 CONDUIT     63.33     0  02:00      0.11    0.07    1.00
  YS02001884YS02001887 CONDUIT     73.95     0  02:00      0.09    0.10    1.00
  YS02001887YS02001890 CONDUIT    548.91     0  02:05      0.70    0.94    1.00
  YS02001890YS02001895 CONDUIT    511.23     0  02:05      0.65    0.24    1.00
  YS02001895YS02001898 CONDUIT    511.33     0  02:05      0.65    0.89    1.00
  YS02001898YS02001901 CONDUIT    510.70     0  02:05      0.65    0.33    1.00
  YS02001901YS02001904 CONDUIT    511.79     0  02:05      0.65    0.79    1.00
  YS02001904YS02001907 CONDUIT    512.30     0  02:05      0.65    0.18    1.00
  YS02001907YS02006553 CONDUIT    790.31     0  02:17      0.88    0.93    1.00
  YS02001910YS02001907 CONDUIT   1011.45     0  02:03      1.29    0.57    1.00
  YS02001915YS02001910 CONDUIT   1011.18     0  02:03      1.29    0.50    1.00
  YS02001918YS02001915 CONDUIT    442.98     0  02:03      0.56    0.24    1.00
  YS02001920YS02001918 CONDUIT    441.48     0  02:03      0.64    0.43    1.00
  YS02001923YS02001920 CONDUIT    437.80     0  02:03      0.71    0.20    1.00
  YS02001926YS02001923 CONDUIT    416.94     0  02:02      0.95    0.60    1.00
  YS02001929YS02001926 CONDUIT    397.87     0  02:03      1.14    0.19    1.00
  YS02006553YS02006556 CONDUIT    790.13     0  02:17      1.01    0.68    1.00
  YS02006556YS02006558 CONDUIT    790.63     0  02:17      1.01    0.62    1.00
  YS02006558YS02006561 CONDUIT   1155.87     0  02:02      4.09    2.55    1.00
  YS02006561YS02001783 CONDUIT   1154.40     0  02:05      2.30    0.60    1.00
  YS02163301YS02001633 CONDUIT    921.02     0  02:01      1.17    0.87    1.00
  YS02163601YS02164001 CONDUIT   1377.48     0  02:01      1.75    1.22    1.00
  YS02164001YS02001641 CONDUIT   1375.16     0  02:01      1.75    1.88    1.00
  YSB1154YSB6556       CONDUIT    297.18     0  02:05      0.77    0.53    1.00
  YSB1171HS02004479    CONDUIT    470.35     0  02:02      0.94    0.31    1.00
  YSB1174YSB1171       CONDUIT    258.20     0  02:05      0.67    0.40    1.00
  YSB6556YSB1171       CONDUIT    298.15     0  02:05      0.77    0.31    1.00
  CC-R1                PUMP       683.00     0  02:10              1.00
  CC-R2                PUMP       683.00     0  02:10              1.00
  CC-S1                PUMP       200.00     0  00:40              1.00
  CC-S2                PUMP       200.00     0  02:10              1.00
  JK-R1                PUMP      1000.00     0  01:50              1.00
  JK-R2                PUMP      1000.00     0  01:50              1.00
  JK-S                 PUMP       300.00     0  01:50              1.00
  XR-1                 PUMP        95.00     0  00:10              1.00
  XR-2                 PUMP        95.00     0  00:29              1.00
  XR-3                 PUMP         0.00     0  00:00              0.00
  XR-4                 PUMP         0.00     0  00:00              0.00
  
  
  ***************************
  Flow Classification Summary
  ***************************
  
  -------------------------------------------------------------------------------------
                      Adjusted    ---------- Fraction of Time in Flow Class ---------- 
                       /Actual         Up    Down  Sub   Sup   Up    Down  Norm  Inlet 
  Conduit               Length    Dry  Dry   Dry   Crit  Crit  Crit  Crit  Ltd   Ctrl  
  -------------------------------------------------------------------------------------
  1                       1.00   0.00  0.00  0.00  0.00  1.00  0.00  0.00  0.42  0.00
  HS02004478WS02006287    1.00   0.29  0.00  0.00  0.38  0.33  0.00  0.00  0.47  0.00
  HS02004479HS02004480    1.00   0.01  0.00  0.00  0.99  0.00  0.00  0.00  0.15  0.00
  HS02004480HS02004478    1.00   0.18  0.00  0.00  0.28  0.00  0.00  0.53  0.00  0.00
  HS02004770HS02004777    1.00   0.00  0.17  0.00  0.83  0.00  0.00  0.00  0.04  0.00
  HS02004777HS02004785    1.00   0.00  0.00  0.00  1.00  0.00  0.00  0.00  0.16  0.00
  HS02004785HS02004788    1.00   0.00  0.00  0.00  1.00  0.00  0.00  0.00  0.00  0.00
  HS02004788HS02004792    1.00   0.00  0.00  0.00  1.00  0.00  0.00  0.00  0.89  0.00
  HS02004792HS02004799    1.00   0.00  0.00  0.00  1.00  0.00  0.00  0.00  0.84  0.00
  HS02004799HS02004480    1.00   0.00  0.01  0.00  0.72  0.00  0.27  0.00  0.00  0.00
  HS02004802HS02004478    1.00   0.18  0.02  0.00  0.79  0.00  0.00  0.00  0.03  0.00
  HS02004807HS02004802    1.00   0.17  0.00  0.00  0.76  0.00  0.00  0.07  0.00  0.00
  HS02004817HS02004807    1.00   0.00  0.17  0.00  0.83  0.00  0.00  0.00  0.01  0.00
  HS02004817HS02004824    1.00   0.00  0.00  0.00  1.00  0.00  0.00  0.00  0.77  0.00
  HS02004824HS02004830    1.00   0.00  0.00  0.00  1.00  0.00  0.00  0.00  0.01  0.00
  HS02004830HS02004837    1.00   0.00  0.00  0.00  1.00  0.00  0.00  0.00  0.87  0.00
  HS02004837HS02004842    1.00   0.00  0.00  0.00  1.00  0.00  0.00  0.00  0.14  0.00
  HS02004842HS02004848    1.00   0.00  0.17  0.00  0.83  0.00  0.00  0.00  0.42  0.00
  HS02004848HS02004852    1.00   0.17  0.00  0.00  0.83  0.00  0.00  0.00  0.62  0.00
  HS02004852HS02004856    1.00   0.17  0.04  0.00  0.79  0.00  0.00  0.00  0.58  0.00
  HS02004856HS02004862    1.00   0.00  0.32  0.00  0.68  0.00  0.00  0.00  0.67  0.00
  HS02004862HS02004870    1.00   0.00  0.00  0.00  1.00  0.00  0.00  0.00  0.05  0.00
  HS02004870HS02004876    1.00   0.00  0.00  0.00  1.00  0.00  0.00  0.00  0.84  0.00
  HS02004876HS02004881    1.00   0.00  0.00  0.00  0.76  0.24  0.00  0.00  0.00  0.00
  HS02004881HS02006253    1.00   0.02  0.00  0.00  0.76  0.00  0.00  0.22  0.39  0.00
  HS02004901HS02004770    1.00   0.17  0.00  0.00  0.83  0.00  0.00  0.00  0.00  0.00
  WS02001211WS02001212    1.00   0.00  0.01  0.00  0.99  0.00  0.00  0.00  0.00  0.00
  WS02001212WS02001213    1.00   0.01  0.00  0.00  0.45  0.00  0.55  0.00  0.00  0.00
  WS02001213WS02003059    1.00   0.00  0.00  0.00  1.00  0.00  0.00  0.00  0.00  0.00
  WS02003059WS02003060    1.00   0.00  0.00  0.00  1.00  0.00  0.00  0.00  0.04  0.00
  WS02003060WS02003069    1.00   0.00  0.00  0.00  0.99  0.01  0.00  0.00  0.31  0.00
  WS02003066WSF200        1.00   0.12  0.00  0.00  0.00  0.88  0.00  0.00  0.50  0.00
  WS02003067WS02003066    1.00   0.03  0.07  0.00  0.90  0.00  0.00  0.00  0.00  0.00
  WS02003069WS02003072    1.00   0.00  0.00  0.00  1.00  0.00  0.00  0.00  0.48  0.00
  WS02003072WS02003073    1.00   0.00  0.00  0.00  0.00  0.00  0.00  1.00  0.00  0.00
  WS02004138WS02004139    1.00   0.01  0.00  0.00  0.99  0.00  0.00  0.00  0.97  0.00
  WS02004139WS02001211    1.00   0.00  0.00  0.00  1.00  0.00  0.00  0.00  0.01  0.00
  WS02004401WS02004402    1.00   0.00  0.00  0.00  1.00  0.00  0.00  0.00  0.00  0.00
  WS02004402WS02004403    1.00   0.00  0.00  0.00  1.00  0.00  0.00  0.00  0.00  0.00
  WS02004403WS02004404    1.00   0.00  0.00  0.00  1.00  0.00  0.00  0.00  0.00  0.00
  WS02004404WS02004405    1.00   0.00  0.00  0.00  1.00  0.00  0.00  0.00  0.00  0.00
  WS02004405WS02004406    1.00   0.00  0.00  0.00  1.00  0.00  0.00  0.00  0.00  0.00
  WS02004406WS02004407    1.00   0.00  0.00  0.00  1.00  0.00  0.00  0.00  0.01  0.00
  WS02004407WS02004409    1.00   0.00  0.00  0.00  1.00  0.00  0.00  0.00  0.84  0.00
  WS02004409WS02004410    1.00   0.00  0.00  0.00  1.00  0.00  0.00  0.00  0.05  0.00
  WS02004410WS02004411    1.00   0.00  0.00  0.00  1.00  0.00  0.00  0.00  0.03  0.00
  WS02004411WS02004412    1.00   0.00  0.00  0.00  1.00  0.00  0.00  0.00  0.01  0.00
  WS02004412WS02004413    1.00   0.00  0.00  0.00  1.00  0.00  0.00  0.00  0.02  0.00
  WS02004413WS02003067    1.00   0.01  0.02  0.00  0.00  0.00  0.97  0.00  0.00  0.00
  WS02006109WS02006110    1.00   0.00  0.00  0.00  1.00  0.00  0.00  0.00  0.00  0.00
  WS02006110WS02006113    1.00   0.00  0.00  0.00  1.00  0.00  0.00  0.00  0.00  0.00
  WS02006111WS02006112    1.00   0.00  0.00  0.00  1.00  0.00  0.00  0.00  0.72  0.00
  WS02006112WS02006115    1.00   0.00  0.00  0.00  1.00  0.00  0.00  0.00  0.00  0.00
  WS02006113WS02006111    1.00   0.00  0.00  0.00  0.26  0.74  0.00  0.00  0.11  0.00
  WS02006115WS02006116    1.00   0.00  0.00  0.00  1.00  0.00  0.00  0.00  0.00  0.00
  WS02006116WS02004401    1.00   0.00  0.00  0.00  1.00  0.00  0.00  0.00  0.00  0.00
  WS02006228WS02006109    1.00   0.00  0.00  0.00  1.00  0.00  0.00  0.00  0.00  0.00
  WS02006229WS02006228    1.00   0.00  0.00  0.00  1.00  0.00  0.00  0.00  0.00  0.00
  WS02006230WS02006229    1.00   0.00  0.00  0.00  1.00  0.00  0.00  0.00  0.02  0.00
  WS02006231WS02006230    1.00   0.00  0.00  0.00  0.46  0.00  0.53  0.00  0.00  0.00
  WS02006232WS02006231    1.00   0.00  0.00  0.00  0.98  0.00  0.01  0.00  0.01  0.00
  WS02006234WS02006232    1.00   0.00  0.00  0.00  1.00  0.00  0.00  0.00  0.11  0.00
  WS02006235WS02006234    1.00   0.06  0.00  0.00  0.89  0.00  0.05  0.00  0.00  0.00
  WS02006238WS02006235    1.00   0.06  0.01  0.00  0.93  0.01  0.00  0.00  0.00  0.00
  WS02006239WS02006238    1.00   0.05  0.00  0.00  0.93  0.00  0.00  0.01  0.08  0.00
  WS02006240WS02006239    1.00   0.05  0.00  0.00  0.82  0.00  0.00  0.13  0.01  0.00
  WS02006242WS02006240    1.00   0.02  0.03  0.00  0.93  0.00  0.02  0.00  0.00  0.00
  WS02006243WS02006242    1.00   0.01  0.00  0.00  0.94  0.00  0.00  0.05  0.34  0.00
  WS02006245WS02006243    1.00   0.01  0.00  0.00  0.90  0.00  0.00  0.09  0.00  0.00
  WS02006247WS02006245    1.00   0.01  0.00  0.00  0.95  0.00  0.00  0.04  0.00  0.00
  WS02006248WS02006247    1.00   0.01  0.00  0.00  0.96  0.00  0.00  0.03  0.37  0.00
  WS02006249WS02006248    1.00   0.00  0.01  0.00  0.78  0.00  0.21  0.00  0.00  0.00
  WS02006251WS02006249    1.00   0.00  0.00  0.00  1.00  0.00  0.00  0.00  0.48  0.00
  WS02006252WS02006251    1.00   0.03  0.21  0.00  0.32  0.00  0.44  0.00  0.00  0.00
  WS02006253WS02006251    1.00   0.01  0.01  0.00  0.97  0.00  0.00  0.00  0.00  0.00
  WS02006256WS02006235    1.00   0.06  0.00  0.00  0.93  0.01  0.00  0.00  0.00  0.00
  WS02006280WS02006229    1.00   0.21  0.00  0.00  0.19  0.06  0.00  0.54  0.01  0.00
  WS02006284WS02006280    1.00   0.21  0.00  0.00  0.13  0.02  0.00  0.64  0.00  0.00
  WS02006287WS02006284    1.00   0.09  0.20  0.00  0.27  0.44  0.00  0.00  0.54  0.00
  WSF200WS02003060        1.00   0.00  0.12  0.00  0.47  0.41  0.00  0.00  0.46  0.00
  YS02001580YS02001583    1.00   0.51  0.25  0.00  0.24  0.00  0.00  0.00  0.56  0.00
  YS02001583YS02001586    1.00   0.22  0.46  0.00  0.31  0.00  0.00  0.00  0.57  0.00
  YS02001586YS02001590    1.00   0.17  0.00  0.00  0.60  0.06  0.00  0.18  0.49  0.00
  YS02001590YS02001593    1.00   0.17  0.03  0.00  0.15  0.00  0.66  0.00  0.00  0.00
  YS02001593YS02001596    1.00   0.20  0.00  0.00  0.17  0.01  0.00  0.62  0.03  0.00
  YS02001596YS02001600    1.00   0.20  0.00  0.00  0.28  0.03  0.00  0.50  0.07  0.00
  YS02001600YS02001601    1.00   0.18  0.03  0.00  0.79  0.00  0.00  0.00  0.49  0.00
  YS02001601YS02001602    1.00   0.16  0.03  0.00  0.80  0.00  0.00  0.00  0.00  0.00
  YS02001602YS02001605    1.00   0.20  0.00  0.00  0.80  0.00  0.00  0.00  0.00  0.00
  YS02001605YS02001607    1.00   0.21  0.00  0.00  0.79  0.00  0.00  0.00  0.00  0.00
  YS02001607YS02001610    1.00   0.19  0.03  0.00  0.79  0.00  0.00  0.00  0.02  0.00
  YS02001610YS02001613    1.00   0.18  0.00  0.00  0.82  0.00  0.00  0.00  0.01  0.00
  YS02001613YS02001616    1.00   0.17  0.00  0.00  0.83  0.00  0.00  0.00  0.01  0.00
  YS02001616YS02001619    1.00   0.17  0.00  0.00  0.83  0.00  0.00  0.00  0.00  0.00
  YS02001619YS02001622    1.00   0.17  0.00  0.00  0.83  0.00  0.00  0.00  0.06  0.00
  YS02001622YS02001625    1.00   0.17  0.00  0.00  0.83  0.00  0.00  0.00  0.07  0.00
  YS02001625YS02001629    1.00   0.18  0.17  0.00  0.21  0.00  0.44  0.00  0.00  0.00
  YS02001629YS02163301    1.00   0.27  0.04  0.00  0.70  0.00  0.00  0.00  0.00  0.00
  YS02001633YS02163601    1.00   0.00  0.00  0.00  1.00  0.00  0.00  0.00  0.20  0.00
  YS02001641YS02001644    1.00   0.00  0.00  0.00  1.00  0.00  0.00  0.00  0.00  0.00
  YS02001644YS02001647    1.00   0.00  0.33  0.00  0.67  0.00  0.00  0.00  0.00  0.00
  YS02001647YS02001649    1.00   0.00  0.34  0.00  0.37  0.29  0.00  0.00  0.43  0.00
  YS02001649YS02001757    1.00   0.00  0.00  0.00  0.68  0.32  0.00  0.00  0.49  0.00
  YS02001652YS02001649    1.00   0.00  0.00  0.00  0.87  0.13  0.00  0.00  0.67  0.00
  YS02001655YS02001652    1.00   0.00  0.00  0.00  0.22  0.02  0.00  0.76  0.06  0.00
  YS02001658YS02001655    1.00   0.00  0.22  0.00  0.35  0.43  0.00  0.00  0.59  0.00
  YS02001661YS02001658    1.00   0.22  0.00  0.00  0.21  0.57  0.00  0.00  0.60  0.00
  YS02001664YS02001661    1.00   0.16  0.00  0.00  0.66  0.17  0.00  0.00  0.82  0.00
  YS02001745YS02001748    1.00   0.00  0.00  0.00  0.12  0.01  0.00  0.87  0.06  0.00
  YS02001748YS02001751    1.00   0.00  0.00  0.00  0.58  0.42  0.00  0.00  0.70  0.00
  YS02001751YS02001754    1.00   0.00  0.00  0.00  0.19  0.01  0.00  0.80  0.03  0.00
  YS02001754YS02001757    1.00   0.00  0.00  0.00  1.00  0.00  0.00  0.00  0.80  0.00
  YS02001757CaochengTiaoxuchi    1.00   0.00  0.00  0.00  1.00  0.00  0.00  0.00  0.68  0.00
  YS02001759YS02001757    1.00   0.00  0.00  0.00  1.00  0.00  0.00  0.00  0.57  0.00
  YS02001762YS02001759    1.00   0.00  0.00  0.00  1.00  0.00  0.00  0.00  0.05  0.00
  YS02001765YS02001762    1.00   0.00  0.00  0.00  1.00  0.00  0.00  0.00  0.66  0.00
  YS02001767YS02001765    1.00   0.00  0.00  0.00  1.00  0.00  0.00  0.00  0.00  0.00
  YS02001770YS02001767    1.00   0.00  0.00  0.00  1.00  0.00  0.00  0.00  0.00  0.00
  YS02001774YS02001770    1.00   0.00  0.20  0.00  0.80  0.00  0.00  0.00  0.04  0.00
  YS02001779YS02001774    1.00   0.00  0.00  0.00  1.00  0.00  0.00  0.00  0.73  0.00
  YS02001783YS02001784    1.00   0.00  0.36  0.00  0.64  0.00  0.00  0.00  0.41  0.00
  YS02001784YS02001785    1.00   0.00  0.00  0.00  1.00  0.00  0.00  0.00  0.23  0.00
  YS02001786YS02001788    1.00   0.00  0.00  0.00  0.67  0.33  0.00  0.00  0.00  0.00
  YS02001788YS02001790    1.00   0.00  0.00  0.00  0.44  0.56  0.00  0.00  0.75  0.00
  YS02001790YS02001791    1.00   0.00  0.00  0.00  0.05  0.95  0.00  0.00  0.19  0.00
  YS02001791YS02001793    1.00   0.00  0.00  0.00  0.06  0.94  0.00  0.00  0.03  0.00
  YS02001793JiankangQianchi    1.00   0.00  0.00  0.00  0.86  0.14  0.00  0.00  0.80  0.00
  YS02001882YS02001884    1.00   0.26  0.03  0.00  0.71  0.00  0.00  0.00  0.00  0.00
  YS02001884YS02001887    1.00   0.02  0.11  0.00  0.87  0.00  0.00  0.00  0.00  0.00
  YS02001887YS02001890    1.00   0.00  0.00  0.00  0.99  0.00  0.01  0.00  0.00  0.00
  YS02001890YS02001895    1.00   0.00  0.31  0.00  0.69  0.00  0.00  0.00  0.00  0.00
  YS02001895YS02001898    1.00   0.31  0.01  0.00  0.63  0.00  0.06  0.00  0.00  0.00
  YS02001898YS02001901    1.00   0.31  0.01  0.00  0.68  0.00  0.00  0.00  0.02  0.00
  YS02001901YS02001904    1.00   0.31  0.00  0.00  0.69  0.00  0.00  0.00  0.00  0.00
  YS02001904YS02001907    1.00   0.00  0.31  0.00  0.69  0.00  0.00  0.00  0.00  0.00
  YS02001907YS02006553    1.00   0.00  0.01  0.00  0.99  0.00  0.00  0.00  0.00  0.00
  YS02001910YS02001907    1.00   0.00  0.00  0.00  0.99  0.00  0.00  0.01  0.16  0.00
  YS02001915YS02001910    1.00   0.00  0.00  0.00  0.92  0.08  0.00  0.00  0.22  0.00
  YS02001918YS02001915    1.00   0.00  0.00  0.00  1.00  0.00  0.00  0.00  0.70  0.00
  YS02001920YS02001918    1.00   0.00  0.00  0.00  1.00  0.00  0.00  0.00  0.01  0.00
  YS02001923YS02001920    1.00   0.00  0.00  0.00  1.00  0.00  0.00  0.00  0.92  0.00
  YS02001926YS02001923    1.00   0.00  0.03  0.00  0.06  0.00  0.91  0.00  0.00  0.00
  YS02001929YS02001926    1.00   0.00  0.17  0.00  0.83  0.00  0.00  0.00  0.78  0.00
  YS02006553YS02006556    1.00   0.00  0.00  0.00  1.00  0.00  0.00  0.00  0.04  0.00
  YS02006556YS02006558    1.00   0.00  0.00  0.00  1.00  0.00  0.00  0.00  0.00  0.00
  YS02006558YS02006561    1.00   0.36  0.00  0.00  0.06  0.58  0.00  0.00  0.26  0.00
  YS02006561YS02001783    1.00   0.36  0.00  0.00  0.11  0.53  0.00  0.00  0.60  0.00
  YS02163301YS02001633    1.00   0.00  0.27  0.00  0.73  0.00  0.00  0.00  0.00  0.00
  YS02163601YS02164001    1.00   0.00  0.03  0.00  0.97  0.00  0.00  0.00  0.00  0.00
  YS02164001YS02001641    1.00   0.00  0.02  0.00  0.97  0.00  0.00  0.00  0.07  0.00
  YSB1154YSB6556          1.00   0.16  0.00  0.00  0.84  0.00  0.00  0.00  0.02  0.00
  YSB1171HS02004479       1.00   0.01  0.00  0.00  0.98  0.00  0.00  0.00  0.14  0.00
  YSB1174YSB1171          1.00   0.02  0.04  0.00  0.94  0.00  0.00  0.00  0.00  0.00
  YSB6556YSB1171          1.00   0.01  0.15  0.00  0.84  0.00  0.00  0.00  0.00  0.00
  
  
  *************************
  Conduit Surcharge Summary
  *************************
  
  ----------------------------------------------------------------------------
                                                           Hours        Hours 
                         --------- Hours Full --------   Above Full   Capacity
  Conduit                Both Ends  Upstream  Dnstream   Normal Flow   Limited
  ----------------------------------------------------------------------------
  HS02004478WS02006287        0.36      0.36      0.52      0.01         0.01
  HS02004479HS02004480        0.52      0.52      0.54      0.01         0.01
  HS02004480HS02004478        0.46      0.52      0.46      1.57         0.46
  HS02004770HS02004777        0.43      0.43      0.44      0.11         0.07
  HS02004777HS02004785        0.38      0.38      0.44      0.01         0.01
  HS02004785HS02004788        0.37      0.38      0.37      1.31         0.36
  HS02004788HS02004792        0.37      0.37      0.49      0.01         0.01
  HS02004792HS02004799        0.49      0.49      0.60      0.01         0.01
  HS02004799HS02004480        0.52      0.52      0.60      0.69         0.01
  HS02004802HS02004478        0.47      0.47      0.53      0.01         0.01
  HS02004807HS02004802        0.51      0.51      0.52      0.13         0.13
  HS02004817HS02004807        0.51      0.51      1.08      0.01         0.01
  HS02004817HS02004824        0.38      0.38      1.08      0.01         0.01
  HS02004824HS02004830        0.35      0.35      0.38      0.01         0.01
  HS02004830HS02004837        0.31      0.31      0.35      0.01         0.01
  HS02004837HS02004842        0.31      0.31      0.44      0.01         0.01
  HS02004842HS02004848        0.28      0.28      0.44      0.01         0.01
  HS02004848HS02004852        0.28      0.28      0.30      0.02         0.01
  HS02004852HS02004856        0.30      0.30      0.33      0.02         0.01
  HS02004856HS02004862        0.29      0.29      0.32      0.01         0.01
  HS02004862HS02004870        0.32      0.32      0.34      0.02         0.02
  HS02004870HS02004876        0.34      0.34      0.41      0.01         0.01
  HS02004876HS02004881        0.39      0.41      0.39      1.34         0.39
  HS02004881HS02006253        0.39      0.39      1.77      0.01         0.01
  HS02004901HS02004770        0.43      0.43      0.44      0.01         0.01
  WS02003072WS02003073        0.01      0.01      0.01      2.33         0.01
  WS02004401WS02004402        1.50      1.50      1.53      1.36         1.36
  WS02004402WS02004403        1.53      1.53      1.54      1.50         1.48
  WS02004403WS02004404        1.54      1.54      1.72      0.01         0.01
  WS02004404WS02004405        1.68      1.72      1.68      3.41         1.68
  WS02004405WS02004406        1.65      1.68      1.65      1.94         1.65
  WS02004406WS02004407        0.01      0.01      1.65      0.01         0.01
  WS02004407WS02004409        0.01      0.01      0.85      0.01         0.01
  WS02004409WS02004410        0.83      0.85      0.83      1.44         0.83
  WS02004410WS02004411        0.75      0.83      0.75      1.47         0.75
  WS02004411WS02004412        0.63      0.75      0.63      1.49         0.63
  WS02004412WS02004413        0.63      0.63      1.24      0.01         0.01
  WS02004413WS02003067        0.01      0.01      1.24      0.01         0.01
  WS02006109WS02006110        1.92      1.92      2.10      1.93         0.01
  WS02006110WS02006113        1.16      1.16      2.10      0.28         0.01
  WS02006111WS02006112        1.12      1.13      2.24      0.01         0.01
  WS02006112WS02006115        1.45      1.45      1.96      0.01         0.01
  WS02006113WS02006111        1.15      1.16      1.15      1.35         1.15
  WS02006115WS02006116        1.46      1.46      1.46      1.44         1.43
  WS02006116WS02004401        1.50      1.50      1.50      1.48         1.47
  WS02006228WS02006109        2.07      2.10      2.07      2.42         2.07
  WS02006229WS02006228        2.07      2.08      2.07      2.21         2.07
  WS02006230WS02006229        2.13      2.15      2.13      3.39         1.28
  WS02006231WS02006230        1.79      1.79      1.87      3.17         0.83
  WS02006232WS02006231        1.87      1.87      1.95      0.01         0.12
  WS02006234WS02006232        1.89      1.89      1.95      0.01         0.01
  WS02006235WS02006234        1.87      1.87      1.89      3.03         0.81
  WS02006238WS02006235        1.90      1.90      1.91      0.01         0.29
  WS02006239WS02006238        1.89      1.89      1.90      1.07         0.37
  WS02006240WS02006239        1.86      1.86      1.87      1.05         0.36
  WS02006242WS02006240        1.86      1.86      1.88      1.21         0.77
  WS02006243WS02006242        1.83      1.83      1.87      0.01         0.01
  WS02006245WS02006243        1.82      1.82      1.83      0.34         0.34
  WS02006247WS02006245        1.82      1.82      1.82      2.68         0.85
  WS02006248WS02006247        1.80      1.80      1.82      0.01         0.01
  WS02006249WS02006248        1.80      1.80      1.81      1.68         0.01
  WS02006251WS02006249        1.80      1.80      1.81      1.76         1.75
  WS02006252WS02006251        1.76      1.77      1.77      1.24         0.01
  WS02006253WS02006251        1.80      1.80      1.80      0.64         0.01
  WS02006256WS02006235        3.21      3.22      5.08      0.59         0.01
  WS02006280WS02006229        0.64      0.64      0.79      0.01         0.01
  WS02006284WS02006280        0.54      0.54      0.62      0.01         0.01
  WS02006287WS02006284        0.46      0.46      0.55      0.17         0.16
  YS02001580YS02001583        0.43      0.43      0.48      0.01         0.01
  YS02001583YS02001586        0.44      0.44      0.59      0.01         0.01
  YS02001586YS02001590        0.60      0.60      0.66      0.01         0.01
  YS02001590YS02001593        0.67      0.67      0.68      0.70         0.01
  YS02001593YS02001596        0.67      0.67      0.77      0.01         0.01
  YS02001596YS02001600        0.82      0.82      0.92      0.01         0.01
  YS02001600YS02001601        0.98      0.98      1.30      0.01         0.01
  YS02001601YS02001602        1.17      1.17      1.34      0.91         0.01
  YS02001602YS02001605        1.11      1.11      1.17      2.14         0.01
  YS02001605YS02001607        1.06      1.11      1.06      1.26         1.06
  YS02001607YS02001610        0.65      0.65      0.68      0.01         0.01
  YS02001610YS02001613        0.65      0.65      0.68      0.01         0.01
  YS02001613YS02001616        0.60      0.60      0.65      0.01         0.01
  YS02001616YS02001619        0.59      0.59      0.60      0.01         0.01
  YS02001619YS02001622        0.59      0.59      0.59      0.66         0.56
  YS02001622YS02001625        0.59      0.59      0.77      0.01         0.01
  YS02001625YS02001629        0.55      0.55      0.77      0.01         0.01
  YS02001629YS02163301        0.77      0.77      0.78      0.05         0.13
  YS02001633YS02163601        0.79      0.79      0.82      0.30         0.28
  YS02001641YS02001644        0.72      0.74      0.72      1.38         0.71
  YS02001644YS02001647        0.52      0.52      0.72      0.03         0.01
  YS02001647YS02001649        0.52      0.52      0.64      0.01         0.01
  YS02001649YS02001757        0.64      0.64      0.70      0.07         0.03
  YS02001652YS02001649        0.47      0.47      0.64      0.01         0.01
  YS02001655YS02001652        0.30      0.30      0.45      0.01         0.01
  YS02001658YS02001655        0.12      0.12      0.30      0.01         0.01
  YS02001661YS02001658        0.01      0.01      0.12      0.01         0.01
  YS02001664YS02001661        0.01      0.01      0.01      0.01         0.01
  YS02001745YS02001748        0.01      0.01      0.01      0.01         0.01
  YS02001748YS02001751        0.04      0.04      0.19      0.01         0.01
  YS02001751YS02001754        0.19      0.19      0.36      0.01         0.01
  YS02001754YS02001757        0.40      0.40      0.70      0.01         0.01
  YS02001757CaochengTiaoxuchi        0.70      0.70      1.19      0.26         0.23
  YS02001759YS02001757        0.61      0.61      0.70      0.01         0.01
  YS02001762YS02001759        0.58      0.58      0.61      0.01         0.02
  YS02001765YS02001762        0.53      0.53      0.58      0.01         0.01
  YS02001767YS02001765        0.50      0.50      0.53      0.01         0.02
  YS02001770YS02001767        0.50      0.50      0.50      0.41         0.31
  YS02001774YS02001770        0.47      0.47      0.56      0.01         0.01
  YS02001779YS02001774        0.36      0.36      0.56      0.01         0.01
  YS02001783YS02001784        0.46      0.49      0.46      0.51         0.42
  YS02001784YS02001785        0.36      0.46      0.36      0.79         0.35
  YS02001786YS02001788        0.14      0.36      0.14      0.67         0.14
  YS02001788YS02001790        0.14      0.14      0.17      0.01         0.01
  YS02001790YS02001791        0.16      0.17      0.18      0.39         0.08
  YS02001791YS02001793        0.18      0.18      0.35      0.01         0.01
  YS02001793JiankangQianchi        0.29      0.29      4.67      0.01         0.01
  YS02001882YS02001884        0.37      0.37      0.38      0.01         0.01
  YS02001884YS02001887        0.40      0.40      0.41      0.01         0.01
  YS02001887YS02001890        0.43      0.43      0.44      0.01         0.01
  YS02001890YS02001895        0.36      0.36      0.45      0.01         0.01
  YS02001895YS02001898        0.35      0.35      0.36      0.01         0.01
  YS02001898YS02001901        0.36      0.36      0.40      0.01         0.01
  YS02001901YS02001904        0.39      0.39      0.40      0.01         0.01
  YS02001904YS02001907        0.39      0.39      0.66      0.01         0.01
  YS02001907YS02006553        0.79      0.79      0.85      0.01         0.01
  YS02001910YS02001907        0.45      0.45      0.64      0.01         0.01
  YS02001915YS02001910        0.37      0.37      0.45      0.01         0.01
  YS02001918YS02001915        0.28      0.28      0.37      0.01         0.01
  YS02001920YS02001918        0.28      0.28      0.29      0.01         0.01
  YS02001923YS02001920        0.24      0.24      0.29      0.01         0.01
  YS02001926YS02001923        0.01      0.01      0.01      0.01         0.01
  YS02001929YS02001926        0.01      0.01      0.01      0.01         0.01
  YS02006553YS02006556        0.55      0.55      0.65      0.01         0.01
  YS02006556YS02006558        0.60      0.60      0.66      0.01         0.01
  YS02006558YS02006561        0.32      0.53      0.32      0.74         0.32
  YS02006561YS02001783        0.25      0.25      0.49      0.01         0.01
  YS02163301YS02001633        0.78      0.78      0.81      0.01         0.01
  YS02163601YS02164001        0.75      0.75      0.82      0.07         0.01
  YS02164001YS02001641        0.74      0.75      0.74      0.65         0.60
  YSB1154YSB6556              0.57      0.57      0.71      0.01         0.01
  YSB1171HS02004479           0.48      0.48      0.71      0.01         0.01
  YSB1174YSB1171              0.63      0.63      0.97      0.01         0.01
  YSB6556YSB1171              0.57      0.57      1.15      0.01         0.01
  
  
  ***************
  Pumping Summary
  ***************
  
  ---------------------------------------------------------------------------------------------------------
                                                  Min       Avg       Max     Total     Power    % Time Off
                        Percent   Number of      Flow      Flow      Flow    Volume     Usage    Pump Curve
  Pump                 Utilized   Start-Ups       LPS       LPS       LPS  10^6 ltr     Kw-hr    Low   High
  ---------------------------------------------------------------------------------------------------------
  CC-R1                   22.26           1      0.00    683.00    683.00     3.285     60.95    0.0   22.2
  CC-R2                   22.26           1      0.00    683.00    683.00     3.285     60.95    0.0   22.2
  CC-S1                   47.28           1      0.00    200.00    200.00     2.043     13.53    0.0    0.0
  CC-S2                   22.26           1      0.00    200.00    200.00     0.962      6.15    0.0    0.0
  JK-R1                   11.12           4      0.00    734.14   1000.00     1.716     11.06    0.0    0.0
  JK-R2                   11.12           4      0.00    734.14   1000.00     1.716     11.06    0.0    0.0
  JK-S                    16.69           5      0.00    271.08    300.00     0.926     17.78    0.0    0.0
  XR-1                    97.21           1      0.00     95.00     95.00     1.995      8.80    0.0    0.0
  XR-2                    91.94           1      0.00     95.00     95.00     1.887      7.97    0.0    0.0
  XR-3                     0.00           0      0.00      0.00      0.00     0.000      0.00    0.0    0.0
  XR-4                     0.00           0      0.00      0.00      0.00     0.000      0.00    0.0    0.0
  

  Analysis begun on:  Wed Aug 24 17:03:07 2022
  Analysis ended on:  Wed Aug 24 17:03:10 2022
  Total elapsed time: 00:00:03