
  EPA STORM WATER MANAGEMENT MODEL - VERSION 5.1 (Build 5.3.0.dev0)
  --------------------------------------------------------------

  WARNING 04: minimum elevation drop used for Conduit WS02004404WS02004405
  WARNING 03: negative offset ignored for Link YS02001904YS02001907
  
  *********************************************************
  NOTE: The summary statistics displayed in this report are
  based on results found at every computational time step,  
  not just on results from each reporting time step.
  *********************************************************
  
  ****************
  Analysis Options
  ****************
  Flow Units ............... LPS
  Process Models:
    Rainfall/Runoff ........ YES
    RDII ................... NO
    Snowmelt ............... NO
    Groundwater ............ NO
    Flow Routing ........... YES
    Ponding Allowed ........ NO
    Water Quality .......... NO
  Infiltration Method ...... HORTON
  Flow Routing Method ...... DYNWAVE
  Surcharge Method ......... EXTRAN
  Starting Date ............ 01/01/2000 00:00:00
  Ending Date .............. 01/01/2000 06:00:00
  Antecedent Dry Days ...... 8.0
  Report Time Step ......... 00:01:00
  Wet Time Step ............ 00:01:00
  Dry Time Step ............ 00:01:00
  Routing Time Step ........ 30.00 sec
  Variable Time Step ....... YES
  Maximum Trials ........... 8
  Number of Threads ........ 4
  Head Tolerance ........... 0.001500 m
  
  
  **************************        Volume         Depth
  Runoff Quantity Continuity     hectare-m            mm
  **************************     ---------       -------
  Total Precipitation ......         1.843        30.429
  Evaporation Loss .........         0.000         0.000
  Infiltration Loss ........         0.213         3.512
  Surface Runoff ...........         1.567        25.861
  Final Storage ............         0.064         1.061
  Continuity Error (%) .....        -0.019
  
  
  **************************        Volume        Volume
  Flow Routing Continuity        hectare-m      10^6 ltr
  **************************     ---------     ---------
  Dry Weather Inflow .......         0.472         4.722
  Wet Weather Inflow .......         1.567        15.667
  Groundwater Inflow .......         0.000         0.000
  RDII Inflow ..............         0.000         0.000
  External Inflow ..........         0.078         0.784
  External Outflow .........         2.068        20.676
  Flooding Loss ............         0.390         3.902
  Evaporation Loss .........         0.000         0.000
  Exfiltration Loss ........         0.000         0.000
  Initial Stored Volume ....         0.303         3.031
  Final Stored Volume ......         0.169         1.693
  Continuity Error (%) .....        -8.545
  
  
  *************************
  Highest Continuity Errors
  *************************
  Node JK-storage (-49.21%)
  Node CC-storage (-9.28%)
  Node YS02001583 (-6.22%)
  Node YS02001884 (5.11%)
  Node HS02004842 (2.75%)
  
  
  ***************************
  Time-Step Critical Elements
  ***************************
  Link WS02006252WS02006251 (66.89%)
  Link WS02006238WS02006235 (8.95%)
  Link WS02006280WS02006229 (8.50%)
  Link YS02001793JiankangQianchi (6.37%)
  Link WS02004404WS02004405 (1.45%)
  
  
  ********************************
  Highest Flow Instability Indexes
  ********************************
  Link WS02006113WS02006111 (28)
  Link WS02006111WS02006112 (15)
  Link WS02004404WS02004405 (11)
  Link WS02006256WS02006235 (10)
  Link WS02006238WS02006235 (10)
  
  
  *************************
  Routing Time Step Summary
  *************************
  Minimum Time Step           :     0.50 sec
  Average Time Step           :     1.33 sec
  Maximum Time Step           :     5.27 sec
  Percent in Steady State     :    -0.00
  Average Iterations per Step :     2.72
  Percent Not Converging      :     7.05
  
  
  ***************************
  Subcatchment Runoff Summary
  ***************************
  
  ------------------------------------------------------------------------------------------------------------------------------
                            Total      Total      Total      Total     Imperv       Perv      Total       Total     Peak  Runoff
                           Precip      Runon       Evap      Infil     Runoff     Runoff     Runoff      Runoff   Runoff   Coeff
  Subcatchment                 mm         mm         mm         mm         mm         mm         mm    10^6 ltr      LPS
  ------------------------------------------------------------------------------------------------------------------------------
  sub0                      30.43       0.00       0.00       0.92      27.03       1.21      28.24        0.02    14.81   0.928
  sub1                      30.43       0.00       0.00       1.55      25.78       1.80      27.58        0.18    93.81   0.906
  sub10                     30.43       0.00       0.00       1.09      26.66       1.34      28.00        0.31   163.75   0.920
  sub11                     30.43       0.00       0.00       1.08      26.69       1.35      28.05        0.33   185.78   0.922
  sub12                     30.43       0.00       0.00       1.76      25.28       2.20      27.47        0.24   149.53   0.903
  sub14                     30.43       0.00       0.00       1.23      26.39       1.51      27.90        0.27   146.14   0.917
  sub15                     30.43       0.00       0.00       4.73      20.29       4.40      24.70        0.42   205.96   0.812
  sub16                     30.43       0.00       0.00       4.92      19.46       5.12      24.58        0.26   140.44   0.808
  sub17                     30.43       0.00       0.00       4.80      19.75       4.94      24.69        0.21   114.21   0.811
  sub2                      30.43       0.00       0.00       6.58      18.21       4.68      22.89        0.21    85.82   0.752
  sub22                     30.43       0.00       0.00       7.10      16.54       5.98      22.52        1.42   667.42   0.740
  sub23                     30.43       0.00       0.00       5.84      18.28       5.42      23.71        1.13   564.08   0.779
  sub3                      30.43       0.00       0.00       7.01      18.14       4.25      22.39        0.50   187.66   0.736
  sub4                      30.43       0.00       0.00       1.70      25.50       1.65      27.14        0.57   214.49   0.892
  sub5                      30.43       0.00       0.00       0.96      26.94       1.18      28.11        0.32   164.85   0.924
  sub60                     30.43       0.00       0.00       1.65      25.54       2.00      27.54        0.36   208.07   0.905
  sub61                     30.43       0.00       0.00       2.38      24.09       2.79      26.89        0.49   283.68   0.884
  sub62                     30.43       0.00       0.00       1.10      26.65       1.34      27.99        0.77   398.65   0.920
  sub63                     30.43       0.00       0.00       4.36      20.61       4.46      25.07        0.57   301.02   0.824
  sub64                     30.43       0.00       0.00       2.21      24.59       2.36      26.95        0.65   306.90   0.886
  sub65                     30.43       0.00       0.00       1.91      25.14       2.04      27.18        0.75   338.46   0.893
  sub66                     30.43       0.00       0.00       5.22      20.43       3.61      24.03        1.12   425.59   0.790
  sub67                     30.43       0.00       0.00       1.07      26.72       1.37      28.09        0.52   322.49   0.923
  sub68                     30.43       0.00       0.00       1.97      24.94       2.29      27.23        0.75   405.88   0.895
  sub69                     30.43       0.00       0.00       1.69      25.67       2.87      28.54        1.06   465.92   0.938
  sub7                      30.43       0.00       0.00       1.22      26.41       1.52      27.94        0.09    55.20   0.918
  sub70                     30.43       0.00       0.00       5.42      19.80       4.93      24.73        0.71   247.08   0.813
  sub71                     30.43       0.00       0.00       1.12      26.58       1.31      27.89        0.73   335.11   0.917
  sub72                     30.43       0.00       0.00       1.00      26.77       1.13      27.90        0.38   159.41   0.917
  sub8                      30.43       0.00       0.00       1.23      26.40       1.51      27.91        0.18    99.98   0.917
  sub9                      30.43       0.00       0.00       1.23      26.39       1.51      27.90        0.13    74.48   0.917
  
  
  ******************
  Node Depth Summary
  ******************
  
  ---------------------------------------------------------------------------------
                                 Average  Maximum  Maximum  Time of Max    Reported
                                   Depth    Depth      HGL   Occurrence   Max Depth
  Node                 Type       Meters   Meters   Meters  days hr:min      Meters
  ---------------------------------------------------------------------------------
  HS02004478           JUNCTION     0.13     1.25    10.48     0  01:55        1.03
  HS02004479           JUNCTION     0.20     1.57    10.77     0  01:55        1.25
  HS02004480           JUNCTION     0.17     1.50    10.74     0  01:55        1.21
  HS02004770           JUNCTION     0.18     1.42    11.25     0  01:55        1.35
  HS02004777           JUNCTION     0.20     1.48    11.28     0  01:55        1.32
  HS02004785           JUNCTION     0.11     1.49    11.39     0  01:55        1.14
  HS02004788           JUNCTION     0.08     1.42    11.32     0  01:55        1.08
  HS02004792           JUNCTION     0.11     1.60    11.12     0  01:53        1.35
  HS02004799           JUNCTION     0.22     1.69    10.90     0  01:55        1.41
  HS02004802           JUNCTION     0.21     1.28    10.40     0  01:55        1.13
  HS02004807           JUNCTION     0.18     1.23    10.40     0  01:55        1.08
  HS02004817           JUNCTION     0.46     1.75    10.60     0  01:55        1.39
  HS02004824           JUNCTION     0.08     1.38    10.78     0  01:55        0.84
  HS02004830           JUNCTION     0.08     0.94    10.41     0  01:56        0.78
  HS02004837           JUNCTION     0.06     0.68    10.26     0  02:01        0.68
  HS02004842           JUNCTION     0.33     1.07    10.34     0  01:55        0.97
  HS02004848           JUNCTION     0.04     0.64    10.24     0  02:00        0.62
  HS02004852           JUNCTION     0.05     0.76    10.27     0  02:00        0.69
  HS02004856           JUNCTION     0.10     0.76    10.19     0  02:00        0.76
  HS02004862           JUNCTION     0.06     1.25    10.63     0  01:58        0.81
  HS02004870           JUNCTION     0.05     1.50    10.79     0  01:58        0.87
  HS02004876           JUNCTION     0.09     1.45    10.48     0  01:58        1.05
  HS02004881           JUNCTION     0.05     1.46    10.49     0  01:58        0.96
  HS02004901           JUNCTION     0.18     1.42    11.24     0  01:54        1.36
  WS02001211           JUNCTION     0.60     0.79     5.63     0  01:57        0.79
  WS02001212           JUNCTION     0.35     0.55     5.61     0  01:59        0.55
  WS02001213           JUNCTION     0.56     0.85     5.61     0  01:58        0.85
  WS02003059           JUNCTION     0.63     0.92     5.60     0  01:59        0.91
  WS02003060           JUNCTION     0.36     0.66     5.59     0  01:59        0.66
  WS02003066           JUNCTION     0.23     0.44     5.99     0  01:58        0.44
  WS02003067           JUNCTION     0.54     0.87     6.19     0  02:00        0.87
  WS02003069           JUNCTION     0.41     0.75     5.33     0  02:00        0.75
  WS02003072           JUNCTION     0.46     0.79     5.16     0  02:01        0.79
  WS02003073           JUNCTION     0.28     0.50     4.56     0  02:02        0.50
  WS02004138           JUNCTION     0.13     0.14     7.39     0  00:33        0.14
  WS02004139           JUNCTION     0.54     0.72     5.63     0  02:00        0.72
  WS02004401           JUNCTION     0.71     1.69     7.69     0  01:55        1.65
  WS02004402           JUNCTION     0.74     1.65     7.61     0  01:55        1.60
  WS02004403           JUNCTION     0.75     1.58     7.51     0  01:55        1.54
  WS02004404           JUNCTION     0.81     1.60     7.45     0  01:55        1.57
  WS02004405           JUNCTION     0.80     1.55     7.40     0  01:55        1.51
  WS02004406           JUNCTION     0.80     1.44     7.27     0  01:55        1.42
  WS02004407           JUNCTION     0.24     0.77     7.08     0  01:57        0.77
  WS02004409           JUNCTION     0.51     1.28     7.05     0  01:58        1.27
  WS02004410           JUNCTION     0.52     1.20     6.92     0  01:56        1.20
  WS02004411           JUNCTION     0.53     1.13     6.81     0  01:56        1.13
  WS02004412           JUNCTION     0.53     1.06     6.70     0  01:57        1.06
  WS02004413           JUNCTION     0.67     1.11     6.58     0  01:57        1.11
  WS02006109           JUNCTION     0.87     2.64     9.26     0  01:55        2.57
  WS02006110           JUNCTION     0.83     2.33     8.92     0  01:55        2.26
  WS02006111           JUNCTION     0.33     1.57     8.28     0  01:55        1.51
  WS02006112           JUNCTION     0.90     2.16     8.04     0  01:55        2.10
  WS02006113           JUNCTION     0.42     1.71     8.60     0  01:55        1.64
  WS02006115           JUNCTION     0.63     1.76     7.90     0  01:55        1.71
  WS02006116           JUNCTION     0.70     1.77     7.81     0  01:55        1.72
  WS02006228           JUNCTION     0.90     2.96     9.61     0  01:55        2.85
  WS02006229           JUNCTION     0.90     3.11     9.80     0  01:55        2.98
  WS02006230           JUNCTION     0.86     2.65     9.39     0  01:52        2.65
  WS02006231           JUNCTION     0.61     2.19     9.31     0  01:58        2.19
  WS02006232           JUNCTION     0.72     2.18     9.22     0  01:52        2.18
  WS02006234           JUNCTION     0.62     1.96     9.12     0  01:51        1.96
  WS02006235           JUNCTION     0.65     2.00     9.16     0  02:20        1.93
  WS02006238           JUNCTION     0.67     2.04     9.18     0  02:20        1.93
  WS02006239           JUNCTION     0.62     1.93     9.14     0  02:20        1.78
  WS02006240           JUNCTION     0.57     2.10     9.39     0  02:20        1.62
  WS02006242           JUNCTION     0.62     1.55     8.82     0  01:50        1.55
  WS02006243           JUNCTION     0.51     1.43     8.85     0  02:20        1.36
  WS02006245           JUNCTION     0.50     1.37     8.86     0  02:20        1.27
  WS02006247           JUNCTION     0.51     1.31     8.81     0  02:20        1.22
  WS02006248           JUNCTION     0.46     1.10     8.69     0  01:49        1.10
  WS02006249           JUNCTION     0.49     1.09     8.69     0  01:48        1.09
  WS02006251           JUNCTION     0.52     2.10     9.77     0  01:58        1.98
  WS02006252           JUNCTION     0.38     1.50     9.74     0  00:10        1.50
  WS02006253           JUNCTION     0.56     2.65    10.29     0  01:58        2.30
  WS02006256           JUNCTION     1.03     2.35     9.28     0  00:00        2.35
  WS02006280           JUNCTION     0.18     1.61     9.88     0  01:55        1.46
  WS02006284           JUNCTION     0.43     1.73    10.13     0  01:55        1.56
  WS02006287           JUNCTION     0.18     1.44    10.39     0  01:55        1.22
  WSF200               JUNCTION     0.22     0.50     5.73     0  02:00        0.50
  YS02001580           JUNCTION     0.03     1.05     9.59     0  01:55        0.71
  YS02001583           JUNCTION     0.05     1.14     9.64     0  01:55        0.75
  YS02001586           JUNCTION     0.11     1.13     9.30     0  01:55        1.06
  YS02001590           JUNCTION     0.19     1.40     9.26     0  01:53        1.31
  YS02001593           JUNCTION     0.12     1.34     9.20     0  01:55        1.24
  YS02001596           JUNCTION     0.17     1.69     9.11     0  01:55        1.62
  YS02001600           JUNCTION     0.22     1.87     9.00     0  01:55        1.84
  YS02001601           JUNCTION     0.40     2.06     8.90     0  01:54        2.06
  YS02001602           JUNCTION     0.33     1.87     8.77     0  01:55        1.84
  YS02001605           JUNCTION     0.30     1.78     8.68     0  01:55        1.64
  YS02001607           JUNCTION     0.30     1.66     8.51     0  01:55        1.36
  YS02001610           JUNCTION     0.33     1.68     8.48     0  01:55        1.40
  YS02001613           JUNCTION     0.30     1.70     8.54     0  01:55        1.34
  YS02001616           JUNCTION     0.24     1.61     8.52     0  01:55        1.26
  YS02001619           JUNCTION     0.22     1.61     8.54     0  01:55        1.23
  YS02001622           JUNCTION     0.20     1.59     8.49     0  01:55        1.21
  YS02001625           JUNCTION     0.43     1.78     8.38     0  01:55        1.45
  YS02001629           JUNCTION     0.30     1.85     8.40     0  01:55        1.45
  YS02001633           JUNCTION     0.37     1.79     8.24     0  01:55        1.46
  YS02001641           JUNCTION     0.36     1.39     7.82     0  01:55        1.22
  YS02001644           JUNCTION     0.35     1.24     7.67     0  01:55        1.15
  YS02001647           JUNCTION     0.16     0.80     7.41     0  01:57        0.79
  YS02001649           JUNCTION     0.18     0.93     7.32     0  01:57        0.91
  YS02001652           JUNCTION     0.09     0.72     7.32     0  02:00        0.72
  YS02001655           JUNCTION     0.06     0.46     7.31     0  01:56        0.46
  YS02001658           JUNCTION     0.05     0.24     7.38     0  01:55        0.24
  YS02001661           JUNCTION     0.10     0.30     7.71     0  01:55        0.30
  YS02001664           JUNCTION     0.04     0.21     8.13     0  01:55        0.21
  YS02001745           JUNCTION     0.04     0.19     7.71     0  01:55        0.19
  YS02001748           JUNCTION     0.04     0.22     7.30     0  01:55        0.22
  YS02001751           JUNCTION     0.04     0.30     7.18     0  02:00        0.27
  YS02001754           JUNCTION     0.06     0.63     7.23     0  02:00        0.55
  YS02001757           JUNCTION     0.19     0.92     7.19     0  01:59        0.92
  YS02001759           JUNCTION     0.13     0.83     7.19     0  01:59        0.82
  YS02001762           JUNCTION     0.13     0.79     7.19     0  01:59        0.78
  YS02001765           JUNCTION     0.11     0.75     7.20     0  01:59        0.74
  YS02001767           JUNCTION     0.12     0.72     7.21     0  01:58        0.71
  YS02001770           JUNCTION     0.13     0.74     7.24     0  02:01        0.73
  YS02001774           JUNCTION     0.18     0.81     7.24     0  02:00        0.80
  YS02001779           JUNCTION     0.04     0.56     7.25     0  02:00        0.55
  YS02001783           JUNCTION     0.16     1.32     7.46     0  02:09        1.11
  YS02001784           JUNCTION     0.19     1.30     7.37     0  02:09        1.11
  YS02001786           JUNCTION     0.16     1.48     7.51     0  02:09        1.03
  YS02001788           JUNCTION     0.12     1.37     7.35     0  02:09        0.97
  YS02001790           JUNCTION     0.14     1.96     7.60     0  02:08        1.19
  YS02001791           JUNCTION     0.09     1.62     7.09     0  02:08        1.24
  YS02001793           JUNCTION     0.07     1.88     6.71     0  02:09        1.80
  YS02001882           JUNCTION     0.20     1.15     7.87     0  01:58        1.12
  YS02001884           JUNCTION     0.27     1.24     7.86     0  01:58        1.22
  YS02001887           JUNCTION     0.35     1.31     7.85     0  01:59        1.29
  YS02001890           JUNCTION     0.37     1.34     7.84     0  01:59        1.33
  YS02001895           JUNCTION     0.17     1.09     7.84     0  01:59        1.08
  YS02001898           JUNCTION     0.18     1.10     7.83     0  01:59        1.10
  YS02001901           JUNCTION     0.27     1.23     7.84     0  02:00        1.22
  YS02001904           JUNCTION     0.26     1.20     7.83     0  01:59        1.20
  YS02001907           JUNCTION     0.54     1.54     7.83     0  02:00        1.54
  YS02001910           JUNCTION     0.36     1.33     7.84     0  02:00        1.33
  YS02001915           JUNCTION     0.20     1.13     7.85     0  02:01        1.13
  YS02001918           JUNCTION     0.08     0.79     7.86     0  02:00        0.79
  YS02001920           JUNCTION     0.16     0.86     7.87     0  02:01        0.85
  YS02001923           JUNCTION     0.05     0.60     7.86     0  02:00        0.60
  YS02001926           JUNCTION     0.10     0.43     7.87     0  02:01        0.42
  YS02001929           JUNCTION     0.04     0.19     7.88     0  02:00        0.19
  YS02006553           JUNCTION     0.54     1.52     7.81     0  01:59        1.52
  YS02006556           JUNCTION     0.52     1.47     7.78     0  01:59        1.47
  YS02006558           JUNCTION     0.56     1.50     7.77     0  02:00        1.50
  YS02006561           JUNCTION     0.09     0.61     7.27     0  02:10        0.57
  YS02163301           JUNCTION     0.32     1.81     8.33     0  01:55        1.43
  YS02163601           JUNCTION     0.41     1.66     8.06     0  01:55        1.39
  YS02164001           JUNCTION     0.34     1.49     7.95     0  01:55        1.26
  YSB1154              JUNCTION     0.31     1.83    10.89     0  01:55        1.43
  YSB1171              JUNCTION     0.45     1.92    10.83     0  01:55        1.56
  YSB1174              JUNCTION     0.27     1.74    10.85     0  01:55        1.36
  YSB6556              JUNCTION     0.22     1.70    10.87     0  01:55        1.31
  CC-1                 OUTFALL      0.00     0.00     0.00     0  00:00        0.00
  CC-2                 OUTFALL      0.00     0.00     0.00     0  00:00        0.00
  JK-1                 OUTFALL      0.00     0.00     0.00     0  00:00        0.00
  JK-2                 OUTFALL      0.00     0.00     0.00     0  00:00        0.00
  WSC                  OUTFALL      0.28     0.50     1.17     0  02:02        0.50
  CC-storage           STORAGE      0.28     0.80     6.30     0  00:00        0.80
  JK-storage           STORAGE      0.26     5.80     6.60     0  02:09        5.80
  XR-storage           STORAGE      7.57     8.66     6.66     0  06:00        8.66
  
  
  *******************
  Node Inflow Summary
  *******************
  
  -------------------------------------------------------------------------------------------------
                                  Maximum  Maximum                  Lateral       Total        Flow
                                  Lateral    Total  Time of Max      Inflow      Inflow     Balance
                                   Inflow   Inflow   Occurrence      Volume      Volume       Error
  Node                 Type           LPS      LPS  days hr:min    10^6 ltr    10^6 ltr     Percent
  -------------------------------------------------------------------------------------------------
  HS02004478           JUNCTION      0.00  1981.12     0  01:55           0        5.18      -0.017
  HS02004479           JUNCTION      0.00   322.79     0  01:55           0       0.567       0.125
  HS02004480           JUNCTION      0.00  1968.61     0  01:56           0        4.09       0.060
  HS02004770           JUNCTION    564.08   704.69     0  01:54        1.13        1.39       0.223
  HS02004777           JUNCTION      0.03   718.60     0  01:54    0.000648        1.38       0.388
  HS02004785           JUNCTION      0.15   739.02     0  01:54     0.00324        1.38       0.040
  HS02004788           JUNCTION    207.63   884.08     0  01:56       0.461        1.84       0.003
  HS02004792           JUNCTION    667.70  1527.75     0  01:56        1.43        3.27       0.012
  HS02004799           JUNCTION    146.14  1668.54     0  01:56       0.266        3.53       0.072
  HS02004802           JUNCTION      0.00   340.13     0  02:12           0        1.12       0.364
  HS02004807           JUNCTION    185.78   361.86     0  01:55       0.326        1.19       0.366
  HS02004817           JUNCTION      0.60   361.93     0  01:55       0.013       0.937       1.769
  HS02004824           JUNCTION    214.54   560.84     0  01:55       0.567        1.05       0.053
  HS02004830           JUNCTION      0.15   552.02     0  01:55     0.00324       0.599       0.222
  HS02004837           JUNCTION    170.10   699.79     0  01:56       0.446       0.757       0.114
  HS02004842           JUNCTION      0.00   635.05     0  01:56           0       0.473       2.824
  HS02004848           JUNCTION    187.66   816.35     0  01:56       0.504       0.846       0.015
  HS02004852           JUNCTION      0.00   804.27     0  01:57           0        0.73       0.015
  HS02004856           JUNCTION     74.48   859.85     0  01:57       0.134       0.864       0.175
  HS02004862           JUNCTION     86.02   942.16     0  01:57       0.218        1.08       0.009
  HS02004870           JUNCTION     99.98  1026.40     0  01:58       0.178        1.26       0.006
  HS02004876           JUNCTION     93.81   984.11     0  01:57       0.183        1.44       0.040
  HS02004881           JUNCTION     55.20   973.43     0  01:58      0.0942        1.54       0.044
  HS02004901           JUNCTION    140.44   140.44     0  01:55       0.257       0.258       0.705
  WS02001211           JUNCTION      7.35   214.06     0  01:59       0.159        4.02       0.827
  WS02001212           JUNCTION      0.00   213.80     0  02:25           0        3.98       0.371
  WS02001213           JUNCTION      0.00   218.61     0  02:25           0        3.97       0.473
  WS02003059           JUNCTION      0.00   223.52     0  02:24           0        3.96       0.814
  WS02003060           JUNCTION     16.53  1423.30     0  01:59       0.357        11.6       0.128
  WS02003066           JUNCTION      0.00  1206.64     0  01:58           0        7.34       0.022
  WS02003067           JUNCTION      0.00  1205.81     0  01:57           0        7.35       0.061
  WS02003069           JUNCTION      0.32  1419.49     0  02:00     0.00691        11.6       0.136
  WS02003072           JUNCTION      0.00  1418.97     0  02:00           0        11.6       0.184
  WS02003073           JUNCTION      1.82  1420.77     0  02:01      0.0393        11.6       0.190
  WS02004138           JUNCTION      0.00   190.00     0  00:29           0        3.88       0.074
  WS02004139           JUNCTION      0.32   190.32     0  00:33     0.00693        3.89       0.688
  WS02004401           JUNCTION      0.00  1212.98     0  01:55           0        7.46       0.145
  WS02004402           JUNCTION      0.00  1213.95     0  01:55           0        7.45       0.145
  WS02004403           JUNCTION      0.00  1214.57     0  01:55           0        7.44       0.141
  WS02004404           JUNCTION      0.16  1216.13     0  01:55      0.0035        7.43       0.136
  WS02004405           JUNCTION      0.04  1216.77     0  01:55    0.000823        7.42       0.152
  WS02004406           JUNCTION      0.00  1217.29     0  01:55           0        7.41       0.291
  WS02004407           JUNCTION      0.00  1217.42     0  01:55           0        7.39       0.022
  WS02004409           JUNCTION      0.00  1205.95     0  01:57           0        7.39       0.045
  WS02004410           JUNCTION      0.00  1205.89     0  01:57           0        7.38       0.071
  WS02004411           JUNCTION      0.00  1205.85     0  01:57           0        7.38       0.086
  WS02004412           JUNCTION      0.00  1205.74     0  01:57           0        7.37       0.112
  WS02004413           JUNCTION      0.00  1205.77     0  01:57           0        7.36       0.195
  WS02006109           JUNCTION      1.23  1112.17     0  01:55      0.0266         7.3       0.107
  WS02006110           JUNCTION      0.00  1104.73     0  02:01           0        7.29       0.111
  WS02006111           JUNCTION      0.00  1104.81     0  02:01           0        7.28       0.011
  WS02006112           JUNCTION    114.21  1210.60     0  01:55       0.212        7.49       0.280
  WS02006113           JUNCTION      0.00  1104.80     0  02:01           0        7.28       0.030
  WS02006115           JUNCTION      0.00  1210.70     0  01:55           0        7.47       0.101
  WS02006116           JUNCTION      0.00  1211.90     0  01:55           0        7.46       0.047
  WS02006228           JUNCTION      0.00  1110.39     0  01:55           0        7.28       0.079
  WS02006229           JUNCTION      0.00  1849.10     0  01:55           0        8.19       0.098
  WS02006230           JUNCTION     10.28   757.97     0  01:55       0.222        3.96       0.211
  WS02006231           JUNCTION      0.00   453.24     0  03:40           0        3.54      -0.063
  WS02006232           JUNCTION      0.00   453.25     0  02:08           0        3.54       0.192
  WS02006234           JUNCTION      0.00   489.77     0  03:40           0        3.54      -0.085
  WS02006235           JUNCTION      0.00   489.34     0  03:40           0        3.62       0.158
  WS02006238           JUNCTION      0.00   419.02     0  03:31           0         3.2      -0.232
  WS02006239           JUNCTION      0.00   418.43     0  03:31           0        3.18      -0.106
  WS02006240           JUNCTION      0.00   418.74     0  03:31           0        3.16      -0.000
  WS02006242           JUNCTION      0.00   418.95     0  03:31           0        3.15       0.091
  WS02006243           JUNCTION      0.00   419.08     0  03:31           0        2.92      -0.176
  WS02006245           JUNCTION      0.00   419.52     0  03:30           0        2.92       0.379
  WS02006247           JUNCTION      0.00   420.02     0  03:30           0        2.92       0.073
  WS02006248           JUNCTION      0.00   419.55     0  03:30           0        3.01      -0.004
  WS02006249           JUNCTION      0.00  1262.33     0  02:01           0        4.56       0.216
  WS02006251           JUNCTION      0.08  1262.77     0  02:00     0.00166        4.59      -0.013
  WS02006252           JUNCTION      0.00   400.00     0  00:10           0        2.98      -0.088
  WS02006253           JUNCTION     14.81   905.05     0  02:01      0.0229         1.6       0.022
  WS02006256           JUNCTION      0.00   300.00     0  00:00           0        1.13      -0.077
  WS02006280           JUNCTION      0.00  1845.32     0  01:55           0        5.17       0.013
  WS02006284           JUNCTION      0.10  1842.22     0  01:55     0.00207        5.17       0.020
  WS02006287           JUNCTION      0.00  1839.14     0  01:57           0        5.17       0.015
  WSF200               JUNCTION      0.00  1206.65     0  01:58           0        7.34       0.009
  YS02001580           JUNCTION      0.00   127.23     0  01:55           0     0.00438       0.642
  YS02001583           JUNCTION      0.00   167.32     0  01:55           0      0.0154      -5.856
  YS02001586           JUNCTION    247.08   247.26     0  02:00       0.714       0.726       0.204
  YS02001590           JUNCTION      0.00   247.32     0  02:00           0       0.713      -0.010
  YS02001593           JUNCTION      0.00   247.27     0  02:00           0       0.713       0.023
  YS02001596           JUNCTION      0.00   247.27     0  02:00           0       0.712      -0.013
  YS02001600           JUNCTION      0.00   247.50     0  02:00           0       0.713      -0.001
  YS02001601           JUNCTION    465.92   704.75     0  01:56        1.06        1.77       0.057
  YS02001602           JUNCTION      0.00   543.52     0  01:54           0        1.64       0.039
  YS02001605           JUNCTION      0.00   543.82     0  01:54           0        1.64       0.050
  YS02001607           JUNCTION      0.00   544.08     0  01:54           0        1.64       0.144
  YS02001610           JUNCTION      0.00   540.03     0  01:54           0        1.64       0.170
  YS02001613           JUNCTION      0.00   546.43     0  01:54           0        1.64       0.131
  YS02001616           JUNCTION      0.00   554.82     0  01:54           0        1.64       0.043
  YS02001619           JUNCTION    425.59   930.77     0  01:55        1.12        2.75       0.012
  YS02001622           JUNCTION      0.00   926.78     0  01:55           0        2.75       0.013
  YS02001625           JUNCTION      0.00   937.08     0  01:55           0        2.75       0.366
  YS02001629           JUNCTION      0.00   937.90     0  01:55           0        2.74       0.033
  YS02001633           JUNCTION    338.66  1217.04     0  01:55       0.753        3.49       0.113
  YS02001641           JUNCTION      0.00  1219.35     0  01:55           0        3.49       0.092
  YS02001644           JUNCTION    306.94  1524.81     0  01:55       0.648        4.13       0.093
  YS02001647           JUNCTION      0.00  1525.60     0  01:55           0        4.12       0.012
  YS02001649           JUNCTION      0.00  1869.08     0  01:57           0         4.7       0.015
  YS02001652           JUNCTION      0.00   371.53     0  01:56           0       0.571      -0.192
  YS02001655           JUNCTION      0.15   299.59     0  01:55     0.00332       0.572       0.160
  YS02001658           JUNCTION      0.00   300.52     0  01:55           0       0.569      -0.006
  YS02001661           JUNCTION      0.00   300.32     0  01:55           0       0.569       0.062
  YS02001664           JUNCTION    301.02   301.02     0  01:55       0.569       0.569      -0.001
  YS02001745           JUNCTION    208.07   208.07     0  01:55       0.362       0.362       0.000
  YS02001748           JUNCTION      0.04   207.60     0  01:55    0.000972       0.363      -0.002
  YS02001751           JUNCTION      0.01   207.97     0  01:55    0.000238       0.363       0.225
  YS02001754           JUNCTION      0.26   257.51     0  02:00     0.00562       0.368      -0.232
  YS02001757           JUNCTION      0.00  2654.67     0  02:00           0        6.34      -0.021
  YS02001759           JUNCTION    283.72   636.01     0  01:59       0.494        1.27      -0.002
  YS02001762           JUNCTION      0.00   393.25     0  01:58           0        0.78       0.024
  YS02001765           JUNCTION      0.00   380.70     0  02:04           0        0.78       0.020
  YS02001767           JUNCTION      0.54   397.83     0  01:59      0.0116        0.78       0.038
  YS02001770           JUNCTION    398.81   398.81     0  01:55        0.77         0.8       0.014
  YS02001774           JUNCTION      0.00    65.73     0  01:57           0      0.0453       2.744
  YS02001779           JUNCTION      0.01    43.09     0  01:57    0.000108       0.014       0.035
  YS02001783           JUNCTION      0.00  1018.55     0  02:01           0         2.4       0.012
  YS02001784           JUNCTION      1.06  1019.83     0  02:00      0.0229        2.43       0.021
  YS02001786           JUNCTION      0.06  1019.61     0  02:01     0.00122        2.43       0.021
  YS02001788           JUNCTION      0.07  1018.57     0  02:00     0.00153        2.43       0.017
  YS02001790           JUNCTION      0.15  1019.74     0  02:01     0.00335        2.43       0.002
  YS02001791           JUNCTION      0.00  1227.59     0  02:11           0        2.43       0.010
  YS02001793           JUNCTION      0.00  1326.17     0  02:11           0        2.43      -0.012
  YS02001882           JUNCTION      0.00    37.12     0  01:57           0      0.0131       5.316
  YS02001884           JUNCTION      0.00    58.60     0  01:54           0      0.0497       5.383
  YS02001887           JUNCTION    322.94   322.94     0  01:55       0.532       0.566       0.816
  YS02001890           JUNCTION      0.00   284.92     0  01:57           0       0.524       0.998
  YS02001895           JUNCTION      0.00   284.35     0  01:57           0       0.519       0.313
  YS02001898           JUNCTION      0.00   288.88     0  01:57           0       0.518       0.087
  YS02001901           JUNCTION      0.00   264.13     0  01:59           0        0.52       0.624
  YS02001904           JUNCTION      0.00   263.81     0  01:59           0       0.525       0.568
  YS02001907           JUNCTION      0.00   704.01     0  02:02           0        1.69       1.075
  YS02001910           JUNCTION      0.00   508.99     0  02:03           0        1.17       0.619
  YS02001915           JUNCTION    335.13   507.84     0  02:03        0.73        1.18       0.150
  YS02001918           JUNCTION      0.00   228.05     0  02:03           0       0.446       0.072
  YS02001920           JUNCTION      2.87   210.61     0  02:02       0.062       0.447       0.240
  YS02001923           JUNCTION      0.04   167.17     0  02:02    0.000814       0.385      -0.023
  YS02001926           JUNCTION      0.05   159.35     0  02:00     0.00113       0.385       0.161
  YS02001929           JUNCTION    159.41   159.41     0  02:00       0.384       0.384       0.003
  YS02006553           JUNCTION      0.00   704.09     0  02:02           0        1.68       0.707
  YS02006556           JUNCTION      0.00   703.52     0  02:02           0        1.69       0.479
  YS02006558           JUNCTION    406.76  1021.60     0  02:00       0.768        2.44       0.151
  YS02006561           JUNCTION      0.00  1021.41     0  02:00           0         2.4      -0.003
  YS02163301           JUNCTION      0.00   885.37     0  02:00           0        2.74       0.065
  YS02163601           JUNCTION      0.11  1217.85     0  01:55     0.00238        3.49       0.154
  YS02164001           JUNCTION      0.00  1218.55     0  01:55           0        3.49       0.077
  YSB1154              JUNCTION    164.85   164.85     0  01:55       0.319       0.319       0.462
  YSB1171              JUNCTION      0.00   314.84     0  01:55           0       0.566       1.131
  YSB1174              JUNCTION    149.53   149.53     0  01:55        0.24       0.241       0.527
  YSB6556              JUNCTION      0.00   164.72     0  01:55           0        0.32       0.367
  CC-1                 OUTFALL       0.00   683.00     0  00:20           0        4.21       0.000
  CC-2                 OUTFALL       0.00   683.00     0  00:50           0        2.18       0.000
  JK-1                 OUTFALL       0.00  1000.00     0  00:40           0        1.85       0.000
  JK-2                 OUTFALL       0.00  1000.00     0  02:10           0       0.856       0.000
  WSC                  OUTFALL       0.00  1420.51     0  02:02           0        11.6       0.000
  CC-storage           STORAGE       0.00  2587.29     0  02:01           0        8.57      -8.492
  JK-storage           STORAGE       0.00  1703.40     0  02:11           0        2.58     -32.983
  XR-storage           STORAGE     200.00   200.00     0  00:00        4.32        4.92       0.001
  
  
  **********************
  Node Surcharge Summary
  **********************
  
  Surcharging occurs when water rises above the top of the highest conduit.
  ---------------------------------------------------------------------
                                               Max. Height   Min. Depth
                                   Hours       Above Crown    Below Rim
  Node                 Type      Surcharged         Meters       Meters
  ---------------------------------------------------------------------
  HS02004478           JUNCTION        0.12          0.330        0.610
  HS02004479           JUNCTION        0.26          0.765        0.285
  HS02004480           JUNCTION        0.29          0.786        0.314
  HS02004770           JUNCTION        0.20          0.720        0.000
  HS02004777           JUNCTION        0.20          0.780        0.000
  HS02004785           JUNCTION        0.15          0.790        0.000
  HS02004788           JUNCTION        0.13          0.720        0.000
  HS02004792           JUNCTION        0.26          0.900        0.000
  HS02004799           JUNCTION        0.36          0.986        0.074
  HS02004802           JUNCTION        0.29          0.566        0.644
  HS02004807           JUNCTION        0.28          0.529        0.691
  HS02004817           JUNCTION        0.74          1.052        0.688
  HS02004824           JUNCTION        0.14          0.680        0.630
  HS02004830           JUNCTION        0.11          0.244        1.086
  HS02004842           JUNCTION        0.22          0.371        1.149
  HS02004852           JUNCTION        0.01          0.055        1.365
  HS02004862           JUNCTION        0.07          0.549        0.751
  HS02004870           JUNCTION        0.10          0.804        0.596
  HS02004876           JUNCTION        0.18          0.747        0.813
  HS02004881           JUNCTION        0.17          0.758        0.692
  HS02004901           JUNCTION        0.21          0.720        0.000
  WS02004401           JUNCTION        1.11          0.691        0.969
  WS02004402           JUNCTION        1.13          0.645        1.095
  WS02004403           JUNCTION        1.14          0.581        1.449
  WS02004404           JUNCTION        1.28          0.598        2.182
  WS02004405           JUNCTION        1.25          0.550        2.250
  WS02004406           JUNCTION        1.22          0.444        2.006
  WS02004409           JUNCTION        0.51          0.281        2.079
  WS02004410           JUNCTION        0.50          0.205        2.335
  WS02004411           JUNCTION        0.47          0.133        2.397
  WS02004412           JUNCTION        0.38          0.056        2.254
  WS02004413           JUNCTION        0.85          0.115        2.085
  WS02006109           JUNCTION        2.04          1.820        0.000
  WS02006110           JUNCTION        1.51          1.423        0.427
  WS02006111           JUNCTION        0.80          0.760        1.110
  WS02006112           JUNCTION        1.76          1.161        0.519
  WS02006113           JUNCTION        0.82          0.905        1.025
  WS02006115           JUNCTION        1.04          0.754        1.496
  WS02006116           JUNCTION        1.06          0.713        1.577
  WS02006228           JUNCTION        2.04          2.129        0.071
  WS02006229           JUNCTION        0.51          0.928        0.142
  WS02006230           JUNCTION        1.27          1.570        0.000
  WS02006231           JUNCTION        1.39          1.479        0.051
  WS02006232           JUNCTION        2.05          1.480        0.000
  WS02006234           JUNCTION        1.61          1.240        0.000
  WS02006235           JUNCTION        1.72          1.290        0.000
  WS02006238           JUNCTION        1.80          1.321        0.109
  WS02006239           JUNCTION        1.60          1.193        0.097
  WS02006240           JUNCTION        1.57          1.390        0.000
  WS02006242           JUNCTION        1.74          0.820        0.000
  WS02006243           JUNCTION        1.47          0.720        0.050
  WS02006245           JUNCTION        1.43          0.664        0.186
  WS02006247           JUNCTION        1.46          0.595        0.165
  WS02006248           JUNCTION        1.35          0.380        0.000
  WS02006249           JUNCTION        1.40          0.390        0.000
  WS02006251           JUNCTION        1.05          1.068        0.112
  WS02006252           JUNCTION        1.56          1.100        0.000
  WS02006253           JUNCTION        1.12          1.606        0.874
  WS02006256           JUNCTION        5.97          2.050        0.000
  WS02006280           JUNCTION        0.38          0.559        0.221
  WS02006284           JUNCTION        0.31          0.452        0.348
  WS02006287           JUNCTION        0.23          0.436        0.454
  YS02001580           JUNCTION        0.03          0.450        0.000
  YS02001583           JUNCTION        0.04          0.500        0.000
  YS02001586           JUNCTION        0.30          0.510        0.000
  YS02001590           JUNCTION        0.37          0.750        0.000
  YS02001593           JUNCTION        0.38          0.720        0.120
  YS02001596           JUNCTION        0.47          0.963        0.107
  YS02001600           JUNCTION        0.60          1.190        0.000
  YS02001601           JUNCTION        0.93          1.440        0.000
  YS02001602           JUNCTION        0.81          1.270        0.000
  YS02001605           JUNCTION        0.76          1.180        0.000
  YS02001607           JUNCTION        0.31          0.658        0.022
  YS02001610           JUNCTION        0.33          0.680        0.000
  YS02001613           JUNCTION        0.30          0.699        0.001
  YS02001616           JUNCTION        0.26          0.610        0.000
  YS02001619           JUNCTION        0.24          0.610        0.000
  YS02001622           JUNCTION        0.23          0.586        0.034
  YS02001625           JUNCTION        0.42          0.780        0.000
  YS02001629           JUNCTION        0.11          0.470        0.000
  YS02001633           JUNCTION        0.43          0.771        0.289
  YS02001641           JUNCTION        0.33          0.387        0.713
  YS02001644           JUNCTION        0.27          0.239        0.681
  YS02001783           JUNCTION        0.24          0.522        1.078
  YS02001784           JUNCTION        0.20          0.501        0.989
  YS02001786           JUNCTION        0.02          0.677        0.753
  YS02001788           JUNCTION        0.01          0.573        0.907
  YS02001790           JUNCTION        0.03          1.157        0.000
  YS02001791           JUNCTION        0.03          0.821        1.099
  YS02001793           JUNCTION        0.05          0.882        1.718
  YS02001882           JUNCTION        0.11          0.152        0.678
  YS02001884           JUNCTION        0.14          0.180        0.690
  YS02001887           JUNCTION        0.20          0.258        0.692
  YS02001890           JUNCTION        0.22          0.285        0.475
  YS02001895           JUNCTION        0.09          0.094        0.656
  YS02001898           JUNCTION        0.07          0.069        0.671
  YS02001901           JUNCTION        0.18          0.227        0.643
  YS02001904           JUNCTION        0.17          0.199        0.651
  YS02001907           JUNCTION        0.41          0.530        0.420
  YS02001910           JUNCTION        0.25          0.333        0.767
  YS02001915           JUNCTION        0.12          0.131        0.869
  YS02006553           JUNCTION        0.42          0.524        0.666
  YS02006556           JUNCTION        0.34          0.430        0.920
  YS02006558           JUNCTION        0.33          0.402        0.998
  YS02163301           JUNCTION        0.41          0.814        0.216
  YS02163601           JUNCTION        0.46          0.662        0.418
  YS02164001           JUNCTION        0.35          0.489        0.611
  YSB1154              JUNCTION        0.46          1.133        0.267
  YSB1171              JUNCTION        0.46          1.072        0.028
  YSB1174              JUNCTION        0.39          1.036        0.214
  YSB6556              JUNCTION        0.34          1.003        0.097
  
  
  *********************
  Node Flooding Summary
  *********************
  
  Flooding refers to all water that overflows a node, whether it ponds or not.
  --------------------------------------------------------------------------
                                                             Total   Maximum
                                 Maximum   Time of Max       Flood    Ponded
                        Hours       Rate    Occurrence      Volume     Depth
  Node                 Flooded       LPS   days hr:min    10^6 ltr    Meters
  --------------------------------------------------------------------------
  HS02004770              0.01     89.20      0  01:55       0.001     0.000
  HS02004777              0.01     32.71      0  01:55       0.000     0.000
  HS02004785              0.01     24.28      0  01:55       0.000     0.000
  HS02004788              0.01    174.50      0  01:55       0.001     0.000
  HS02004792              0.01    103.22      0  01:53       0.000     0.000
  HS02004901              0.01     48.57      0  01:55       0.001     0.000
  WS02006109              0.01     14.72      0  01:55       0.000     0.000
  WS02006230              0.32    304.82      0  01:55       0.214     0.000
  WS02006232              0.08      0.62      0  02:03       0.000     0.000
  WS02006234              0.38    128.53      0  02:04       0.159     0.000
  WS02006235              0.01      8.89      0  02:20       0.000     0.000
  WS02006240              0.01     30.36      0  02:20       0.000     0.000
  WS02006242              0.48    137.28      0  02:01       0.210     0.000
  WS02006248              0.65    338.55      0  02:16       0.596     0.000
  WS02006249              1.02   1228.85      0  01:59       2.063     0.000
  WS02006252              0.10     68.25      0  01:58       0.010     0.000
  WS02006256              0.92    291.52      0  00:00       0.502     0.000
  YS02001580              0.01     97.35      0  01:55       0.000     0.000
  YS02001583              0.01     62.64      0  01:55       0.000     0.000
  YS02001586              0.01     71.49      0  01:55       0.001     0.000
  YS02001590              0.01     67.19      0  01:53       0.000     0.000
  YS02001600              0.01      1.53      0  01:55       0.000     0.000
  YS02001601              0.23    243.54      0  01:56       0.125     0.000
  YS02001602              0.01     20.93      0  01:55       0.000     0.000
  YS02001605              0.01      4.60      0  01:55       0.000     0.000
  YS02001610              0.01     42.29      0  01:55       0.000     0.000
  YS02001616              0.01     16.00      0  01:55       0.000     0.000
  YS02001619              0.01      7.72      0  01:55       0.000     0.000
  YS02001625              0.01      7.71      0  01:55       0.000     0.000
  YS02001629              0.01    161.79      0  01:55       0.000     0.000
  YS02001790              0.01    196.61      0  02:08       0.000     0.000
  JK-storage              0.01    430.52      0  02:10       0.016     0.000
  
  
  **********************
  Storage Volume Summary
  **********************
  
  --------------------------------------------------------------------------------------------------
                         Average     Avg  Evap Exfil       Maximum     Max    Time of Max    Maximum
                          Volume    Pcnt  Pcnt  Pcnt        Volume    Pcnt     Occurrence    Outflow
  Storage Unit           1000 m3    Full  Loss  Loss       1000 m3    Full    days hr:min        LPS
  --------------------------------------------------------------------------------------------------
  CC-storage               0.771      12     0     0         2.230      35       0  00:00    1766.00
  JK-storage               0.013       4     0     0         0.291     100       0  02:09    2300.00
  XR-storage               0.909      63     0     0         1.039      72       0  06:00     190.00
  
  
  ***********************
  Outfall Loading Summary
  ***********************
  
  -----------------------------------------------------------
                         Flow       Avg       Max       Total
                         Freq      Flow      Flow      Volume
  Outfall Node           Pcnt       LPS       LPS    10^6 ltr
  -----------------------------------------------------------
  CC-1                  49.52    390.88    683.00       4.206
  CC-2                  23.51    352.70    683.00       2.177
  JK-1                  62.86    150.14   1000.00       1.848
  JK-2                  23.78    169.03   1000.00       0.856
  WSC                   99.97    558.37   1420.51      11.589
  -----------------------------------------------------------
  System                51.93   1621.13   3764.24      20.676
  
  
  ********************
  Link Flow Summary
  ********************
  
  -----------------------------------------------------------------------------
                                 Maximum  Time of Max   Maximum    Max/    Max/
                                  |Flow|   Occurrence   |Veloc|    Full    Full
  Link                 Type          LPS  days hr:min     m/sec    Flow   Depth
  -----------------------------------------------------------------------------
  1                    CONDUIT   1420.51     0  02:02      3.65    0.49    0.50
  HS02004478WS02006287 CONDUIT   1839.14     0  01:57      2.57    0.51    1.00
  HS02004479HS02004480 CONDUIT    333.77     0  01:55      0.48    0.32    1.00
  HS02004480HS02004478 CONDUIT   1981.12     0  01:55      2.83    8.34    1.00
  HS02004770HS02004777 CONDUIT    718.57     0  01:54      1.03    1.31    1.00
  HS02004777HS02004785 CONDUIT    738.87     0  01:54      1.11    0.91    1.00
  HS02004785HS02004788 CONDUIT    682.10     0  01:56      1.36    5.14    1.00
  HS02004788HS02004792 CONDUIT    885.13     0  01:56      1.47    0.59    1.00
  HS02004792HS02004799 CONDUIT   1528.47     0  01:56      2.18    0.94    1.00
  HS02004799HS02004480 CONDUIT   1669.17     0  01:56      2.38    2.11    1.00
  HS02004802HS02004478 CONDUIT    353.66     0  02:12      0.69    0.31    1.00
  HS02004807HS02004802 CONDUIT    340.13     0  02:12      0.61    0.65    1.00
  HS02004817HS02004807 CONDUIT    361.33     0  01:55      0.52    0.21    1.00
  HS02004817HS02004824 CONDUIT    362.64     0  01:55      0.52    0.16    1.00
  HS02004824HS02004830 CONDUIT    551.87     0  01:55      0.82    0.72    1.00
  HS02004830HS02004837 CONDUIT    536.18     0  01:56      0.84    0.53    0.98
  HS02004837HS02004842 CONDUIT    635.05     0  01:56      0.95    0.38    0.98
  HS02004842HS02004848 CONDUIT    635.24     0  01:56      1.03    0.37    0.95
  HS02004848HS02004852 CONDUIT    804.27     0  01:57      1.46    0.91    0.95
  HS02004852HS02004856 CONDUIT    792.24     0  01:57      1.37    0.91    1.00
  HS02004856HS02004862 CONDUIT    856.57     0  01:57      1.62    0.85    0.99
  HS02004862HS02004870 CONDUIT    937.71     0  01:58      1.80    1.01    1.00
  HS02004870HS02004876 CONDUIT    896.00     0  01:57      1.64    0.59    1.00
  HS02004876HS02004881 CONDUIT    925.92     0  01:58      2.11    9.85    1.00
  HS02004881HS02006253 CONDUIT    895.82     0  02:01      2.78    0.18    1.00
  HS02004901HS02004770 CONDUIT    144.55     0  01:54      0.21    0.54    1.00
  WS02001211WS02001212 CONDUIT    213.80     0  02:25      0.54    0.16    0.67
  WS02001212WS02001213 CONDUIT    218.61     0  02:25      1.04    0.34    0.54
  WS02001213WS02003059 CONDUIT    223.52     0  02:24      0.46    0.37    0.87
  WS02003059WS02003060 CONDUIT    230.78     0  02:24      0.65    0.15    0.79
  WS02003060WS02003069 CONDUIT   1419.17     0  02:00      2.06    0.56    0.59
  WS02003066WSF200     CONDUIT   1206.65     0  01:58      3.34    0.20    0.37
  WS02003067WS02003066 CONDUIT   1206.64     0  01:58      1.93    0.39    0.54
  WS02003069WS02003072 CONDUIT   1418.97     0  02:00      1.86    0.68    0.64
  WS02003072WS02003073 CONDUIT   1418.95     0  02:01      2.01    3.06    0.60
  WS02004138WS02004139 CONDUIT    190.00     0  00:33      2.18    0.04    0.40
  WS02004139WS02001211 CONDUIT    206.71     0  01:59      0.54    0.26    0.59
  WS02004401WS02004402 CONDUIT   1213.95     0  01:55      1.55    1.46    1.00
  WS02004402WS02004403 CONDUIT   1214.57     0  01:55      1.55    1.74    1.00
  WS02004403WS02004404 CONDUIT   1215.97     0  01:55      1.55    0.88    1.00
  WS02004404WS02004405 CONDUIT   1216.73     0  01:55      1.55   11.92    1.00
  WS02004405WS02004406 CONDUIT   1217.29     0  01:55      1.55    2.40    1.00
  WS02004406WS02004407 CONDUIT   1217.42     0  01:55      1.86    0.54    0.88
  WS02004407WS02004409 CONDUIT   1205.95     0  01:57      1.92    0.43    0.88
  WS02004409WS02004410 CONDUIT   1205.89     0  01:57      1.54    1.56    1.00
  WS02004410WS02004411 CONDUIT   1205.85     0  01:57      1.54    1.65    1.00
  WS02004411WS02004412 CONDUIT   1205.74     0  01:57      1.54    1.71    1.00
  WS02004412WS02004413 CONDUIT   1205.77     0  01:57      1.54    0.81    1.00
  WS02004413WS02003067 CONDUIT   1205.81     0  01:57      1.90    0.52    0.75
  WS02006109WS02006110 CONDUIT   1104.73     0  02:01      2.20    2.12    1.00
  WS02006110WS02006113 CONDUIT   1104.80     0  02:01      2.20    1.01    1.00
  WS02006111WS02006112 CONDUIT   1105.11     0  02:01      2.20    0.53    1.00
  WS02006112WS02006115 CONDUIT   1210.70     0  01:55      1.54    0.71    1.00
  WS02006113WS02006111 CONDUIT   1104.81     0  02:01      2.68    1.32    1.00
  WS02006115WS02006116 CONDUIT   1211.90     0  01:55      1.54    1.56    1.00
  WS02006116WS02004401 CONDUIT   1212.98     0  01:55      1.54    1.67    1.00
  WS02006228WS02006109 CONDUIT   1110.94     0  01:55      2.21    4.85    1.00
  WS02006229WS02006228 CONDUIT   1110.39     0  01:55      2.21    3.68    1.00
  WS02006230WS02006229 CONDUIT    747.69     0  01:55      1.94   16.64    1.00
  WS02006231WS02006230 CONDUIT    453.14     0  02:08      1.39    6.87    1.00
  WS02006232WS02006231 CONDUIT    453.25     0  02:08      1.22    0.95    1.00
  WS02006234WS02006232 CONDUIT    453.20     0  02:10      1.41    0.92    1.00
  WS02006235WS02006234 CONDUIT    489.77     0  03:40      1.27    5.17    1.00
  WS02006238WS02006235 CONDUIT    420.12     0  03:31      1.62    0.94    1.00
  WS02006239WS02006238 CONDUIT    419.02     0  03:31      1.09    1.34    1.00
  WS02006240WS02006239 CONDUIT    418.43     0  03:31      1.22    1.32    1.00
  WS02006242WS02006240 CONDUIT    418.74     0  03:31      1.09    1.66    1.00
  WS02006243WS02006242 CONDUIT    418.95     0  03:31      1.37    0.90    1.00
  WS02006245WS02006243 CONDUIT    419.08     0  03:31      1.37    1.24    1.00
  WS02006247WS02006245 CONDUIT    419.52     0  03:30      1.35    3.33    1.00
  WS02006248WS02006247 CONDUIT    420.02     0  03:30      1.39    0.91    1.00
  WS02006249WS02006248 CONDUIT    419.55     0  03:30      1.39    2.30    1.00
  WS02006251WS02006249 CONDUIT   1262.33     0  02:01      3.28    3.64    1.00
  WS02006252WS02006251 CONDUIT    413.36     0  01:50     11.16    1.52    1.00
  WS02006253WS02006251 CONDUIT    904.47     0  02:01      2.35    2.71    1.00
  WS02006256WS02006235 CONDUIT    289.10     0  00:00      4.25    3.06    1.00
  WS02006280WS02006229 CONDUIT   1849.10     0  01:55      4.33    0.39    1.00
  WS02006284WS02006280 CONDUIT   1845.32     0  01:55      2.96    0.77    1.00
  WS02006287WS02006284 CONDUIT   1842.12     0  01:55      2.73    0.85    1.00
  WSF200WS02003060     CONDUIT   1207.75     0  01:58      2.45    0.27    0.48
  YS02001580YS02001583 CONDUIT    127.23     0  01:55      0.70    0.49    1.00
  YS02001583YS02001586 CONDUIT    155.79     0  01:55      0.67    0.24    1.00
  YS02001586YS02001590 CONDUIT    247.32     0  02:00      1.28    0.43    1.00
  YS02001590YS02001593 CONDUIT    247.27     0  02:00      1.02    1.55    1.00
  YS02001593YS02001596 CONDUIT    247.27     0  02:00      1.69    0.39    1.00
  YS02001596YS02001600 CONDUIT    247.50     0  02:00      1.17    0.48    1.00
  YS02001600YS02001601 CONDUIT    247.31     0  02:00      0.87    0.43    1.00
  YS02001601YS02001602 CONDUIT    543.52     0  01:54      1.92    1.96    1.00
  YS02001602YS02001605 CONDUIT    543.82     0  01:54      1.92   11.51    1.00
  YS02001605YS02001607 CONDUIT    544.08     0  01:54      1.92    2.98    1.00
  YS02001607YS02001610 CONDUIT    540.03     0  01:54      0.69    0.51    1.00
  YS02001610YS02001613 CONDUIT    546.43     0  01:54      0.70    0.63    1.00
  YS02001613YS02001616 CONDUIT    554.82     0  01:54      0.71    0.48    1.00
  YS02001616YS02001619 CONDUIT    533.01     0  01:55      0.68    0.93    1.00
  YS02001619YS02001622 CONDUIT    926.78     0  01:55      1.26    1.37    1.00
  YS02001622YS02001625 CONDUIT    937.08     0  01:55      1.19    0.50    1.00
  YS02001625YS02001629 CONDUIT    937.90     0  01:55      1.20    0.45    1.00
  YS02001629YS02163301 CONDUIT    885.37     0  02:00      1.13    1.09    1.00
  YS02001633YS02163601 CONDUIT   1217.74     0  01:55      1.55    1.28    1.00
  YS02001641YS02001644 CONDUIT   1220.61     0  01:55      1.55    3.95    1.00
  YS02001644YS02001647 CONDUIT   1525.60     0  01:55      2.10    0.90    0.90
  YS02001647YS02001649 CONDUIT   1547.38     0  01:56      2.26    0.82    0.85
  YS02001649YS02001757 CONDUIT   1848.71     0  01:57      2.49    1.12    0.92
  YS02001652YS02001649 CONDUIT    376.23     0  01:57      0.81    0.19    0.82
  YS02001655YS02001652 CONDUIT    371.53     0  01:56      1.48    0.18    0.57
  YS02001658YS02001655 CONDUIT    299.44     0  01:55      1.94    0.13    0.35
  YS02001661YS02001658 CONDUIT    300.52     0  01:55      2.11    0.12    0.24
  YS02001664YS02001661 CONDUIT    300.32     0  01:55      1.90    0.09    0.25
  YS02001745YS02001748 CONDUIT    207.55     0  01:55      1.98    0.08    0.19
  YS02001748YS02001751 CONDUIT    207.96     0  01:55      1.67    0.11    0.25
  YS02001751YS02001754 CONDUIT    257.25     0  02:00      1.52    0.12    0.41
  YS02001754YS02001757 CONDUIT    339.95     0  02:02      0.57    0.14    0.76
  YS02001757CaochengTiaoxuchi CONDUIT   2587.29     0  02:01      7.08    1.12    0.65
  YS02001759YS02001757 CONDUIT    611.83     0  01:58      0.89    0.43    0.88
  YS02001762YS02001759 CONDUIT    406.92     0  02:05      0.68    0.47    0.81
  YS02001765YS02001762 CONDUIT    393.25     0  01:58      0.67    0.37    0.77
  YS02001767YS02001765 CONDUIT    380.70     0  02:04      0.77    0.48    0.74
  YS02001770YS02001767 CONDUIT    397.29     0  01:59      0.78    1.57    0.73
  YS02001774YS02001770 CONDUIT     65.73     0  01:57      0.17    0.04    0.76
  YS02001779YS02001774 CONDUIT     54.61     0  02:03      0.11    0.03    0.68
  YS02001783YS02001784 CONDUIT   1018.77     0  02:00      2.03    1.40    1.00
  YS02001784YS02001785 CONDUIT   1019.55     0  02:01      2.06    2.37    1.00
  YS02001786YS02001788 CONDUIT   1018.50     0  02:00      2.35    1.96    1.00
  YS02001788YS02001790 CONDUIT   1019.58     0  02:01      2.54    0.75    1.00
  YS02001790YS02001791 CONDUIT   1227.59     0  02:11      3.23    1.34    1.00
  YS02001791YS02001793 CONDUIT   1326.17     0  02:11      6.42    0.57    1.00
  YS02001793JiankangQianchi CONDUIT   1703.40     0  02:11     21.26    0.14    1.00
  YS02001882YS02001884 CONDUIT     37.12     0  01:57      0.10    0.04    1.00
  YS02001884YS02001887 CONDUIT     58.60     0  01:54      0.08    0.08    1.00
  YS02001887YS02001890 CONDUIT    284.92     0  01:57      0.37    0.49    1.00
  YS02001890YS02001895 CONDUIT    284.35     0  01:57      0.37    0.13    1.00
  YS02001895YS02001898 CONDUIT    288.88     0  01:57      0.41    0.50    1.00
  YS02001898YS02001901 CONDUIT    264.13     0  01:59      0.36    0.17    1.00
  YS02001901YS02001904 CONDUIT    263.81     0  01:59      0.34    0.41    1.00
  YS02001904YS02001907 CONDUIT    261.65     0  01:59      0.33    0.09    1.00
  YS02001907YS02006553 CONDUIT    704.09     0  02:02      0.78    0.83    1.00
  YS02001910YS02001907 CONDUIT    509.50     0  02:03      0.65    0.29    1.00
  YS02001915YS02001910 CONDUIT    508.99     0  02:03      0.65    0.25    1.00
  YS02001918YS02001915 CONDUIT    228.71     0  02:06      0.49    0.13    0.89
  YS02001920YS02001918 CONDUIT    228.05     0  02:03      0.64    0.22    0.82
  YS02001923YS02001920 CONDUIT    207.74     0  02:02      0.74    0.09    0.73
  YS02001926YS02001923 CONDUIT    167.13     0  02:02      0.91    0.24    0.41
  YS02001929YS02001926 CONDUIT    159.30     0  02:00      1.00    0.08    0.30
  YS02006553YS02006556 CONDUIT    703.52     0  02:02      0.90    0.60    1.00
  YS02006556YS02006558 CONDUIT    704.63     0  02:03      0.90    0.56    1.00
  YS02006558YS02006561 CONDUIT   1021.41     0  02:00      3.68    2.26    1.00
  YS02006561YS02001783 CONDUIT   1018.55     0  02:01      2.26    0.53    0.88
  YS02163301YS02001633 CONDUIT    885.31     0  02:00      1.13    0.83    1.00
  YS02163601YS02164001 CONDUIT   1218.55     0  01:55      1.55    1.08    1.00
  YS02164001YS02001641 CONDUIT   1219.35     0  01:55      1.55    1.66    1.00
  YSB1154YSB6556       CONDUIT    164.72     0  01:55      0.43    0.30    1.00
  YSB1171HS02004479    CONDUIT    322.79     0  01:55      0.64    0.22    1.00
  YSB1174YSB1171       CONDUIT    149.33     0  01:55      0.39    0.23    1.00
  YSB6556YSB1171       CONDUIT    171.04     0  01:55      0.44    0.18    1.00
  CC-R1                PUMP       683.00     0  00:20              1.00
  CC-R2                PUMP       683.00     0  00:50              1.00
  CC-S1                PUMP       200.00     0  00:00              1.00
  CC-S2                PUMP       200.00     0  00:10              1.00
  JK-R1                PUMP      1000.00     0  00:40              1.00
  JK-R2                PUMP      1000.00     0  02:10              1.00
  JK-S                 PUMP       300.00     0  00:00              1.00
  XR-1                 PUMP        95.00     0  00:10              1.00
  XR-2                 PUMP        95.00     0  00:29              1.00
  XR-3                 PUMP         0.00     0  00:00              0.00
  XR-4                 PUMP         0.00     0  00:00              0.00
  
  
  ***************************
  Flow Classification Summary
  ***************************
  
  -------------------------------------------------------------------------------------
                      Adjusted    ---------- Fraction of Time in Flow Class ---------- 
                       /Actual         Up    Down  Sub   Sup   Up    Down  Norm  Inlet 
  Conduit               Length    Dry  Dry   Dry   Crit  Crit  Crit  Crit  Ltd   Ctrl  
  -------------------------------------------------------------------------------------
  1                       1.00   0.00  0.00  0.00  0.00  1.00  0.00  0.00  0.45  0.00
  HS02004478WS02006287    1.00   0.24  0.00  0.00  0.47  0.29  0.00  0.00  0.51  0.00
  HS02004479HS02004480    1.00   0.07  0.00  0.00  0.93  0.00  0.00  0.00  0.16  0.00
  HS02004480HS02004478    1.00   0.22  0.00  0.00  0.39  0.00  0.00  0.39  0.00  0.00
  HS02004770HS02004777    1.00   0.00  0.22  0.00  0.78  0.00  0.00  0.00  0.05  0.00
  HS02004777HS02004785    1.00   0.00  0.00  0.00  1.00  0.00  0.00  0.00  0.18  0.00
  HS02004785HS02004788    1.00   0.00  0.00  0.00  1.00  0.00  0.00  0.00  0.00  0.00
  HS02004788HS02004792    1.00   0.00  0.00  0.00  0.97  0.03  0.00  0.00  0.93  0.00
  HS02004792HS02004799    1.00   0.00  0.00  0.00  0.97  0.03  0.00  0.00  0.89  0.00
  HS02004799HS02004480    1.00   0.01  0.06  0.00  0.76  0.00  0.17  0.00  0.00  0.00
  HS02004802HS02004478    1.00   0.22  0.00  0.00  0.77  0.00  0.00  0.00  0.03  0.00
  HS02004807HS02004802    1.00   0.22  0.00  0.00  0.77  0.00  0.00  0.01  0.01  0.00
  HS02004817HS02004807    1.00   0.00  0.22  0.00  0.78  0.00  0.00  0.00  0.01  0.00
  HS02004817HS02004824    1.00   0.00  0.00  0.00  1.00  0.00  0.00  0.00  0.84  0.00
  HS02004824HS02004830    1.00   0.00  0.00  0.00  1.00  0.00  0.00  0.00  0.01  0.00
  HS02004830HS02004837    1.00   0.00  0.00  0.00  1.00  0.00  0.00  0.00  0.91  0.00
  HS02004837HS02004842    1.00   0.00  0.00  0.00  0.98  0.02  0.00  0.00  0.14  0.00
  HS02004842HS02004848    1.00   0.00  0.22  0.00  0.78  0.00  0.00  0.00  0.47  0.00
  HS02004848HS02004852    1.00   0.22  0.00  0.00  0.78  0.00  0.00  0.00  0.64  0.00
  HS02004852HS02004856    1.00   0.22  0.01  0.00  0.77  0.00  0.00  0.00  0.64  0.00
  HS02004856HS02004862    1.00   0.00  0.25  0.00  0.75  0.00  0.00  0.00  0.69  0.00
  HS02004862HS02004870    1.00   0.00  0.00  0.00  1.00  0.00  0.00  0.00  0.06  0.00
  HS02004870HS02004876    1.00   0.01  0.00  0.00  0.97  0.01  0.00  0.00  0.88  0.00
  HS02004876HS02004881    1.00   0.05  0.00  0.00  0.76  0.19  0.00  0.00  0.00  0.00
  HS02004881HS02006253    1.00   0.01  0.10  0.00  0.52  0.03  0.00  0.35  0.36  0.00
  HS02004901HS02004770    1.00   0.22  0.00  0.00  0.78  0.00  0.00  0.00  0.01  0.00
  WS02001211WS02001212    1.00   0.00  0.06  0.00  0.94  0.00  0.00  0.00  0.00  0.00
  WS02001212WS02001213    1.00   0.06  0.00  0.00  0.52  0.00  0.42  0.00  0.00  0.00
  WS02001213WS02003059    1.00   0.01  0.02  0.00  0.98  0.00  0.00  0.00  0.00  0.00
  WS02003059WS02003060    1.00   0.00  0.00  0.00  0.99  0.01  0.00  0.00  0.04  0.00
  WS02003060WS02003069    1.00   0.00  0.00  0.00  0.94  0.06  0.00  0.00  0.25  0.00
  WS02003066WSF200        1.00   0.10  0.00  0.00  0.00  0.90  0.00  0.00  0.62  0.00
  WS02003067WS02003066    1.00   0.09  0.01  0.00  0.90  0.00  0.00  0.00  0.00  0.00
  WS02003069WS02003072    1.00   0.00  0.00  0.00  0.99  0.01  0.00  0.00  0.50  0.00
  WS02003072WS02003073    1.00   0.00  0.00  0.00  0.00  0.00  0.00  1.00  0.00  0.00
  WS02004138WS02004139    1.00   0.04  0.01  0.00  0.94  0.01  0.00  0.00  0.97  0.00
  WS02004139WS02001211    1.00   0.00  0.02  0.00  0.98  0.00  0.00  0.00  0.00  0.00
  WS02004401WS02004402    1.00   0.05  0.00  0.00  0.95  0.00  0.00  0.00  0.00  0.00
  WS02004402WS02004403    1.00   0.05  0.00  0.00  0.94  0.00  0.00  0.00  0.00  0.00
  WS02004403WS02004404    1.00   0.00  0.06  0.00  0.94  0.00  0.00  0.00  0.00  0.00
  WS02004404WS02004405    1.00   0.00  0.00  0.00  1.00  0.00  0.00  0.00  0.01  0.00
  WS02004405WS02004406    1.00   0.00  0.00  0.00  1.00  0.00  0.00  0.00  0.00  0.00
  WS02004406WS02004407    1.00   0.00  0.06  0.00  0.94  0.00  0.00  0.00  0.00  0.00
  WS02004407WS02004409    1.00   0.06  0.00  0.00  0.92  0.02  0.00  0.00  0.85  0.00
  WS02004409WS02004410    1.00   0.07  0.00  0.00  0.93  0.00  0.00  0.00  0.00  0.00
  WS02004410WS02004411    1.00   0.07  0.00  0.00  0.93  0.00  0.00  0.00  0.00  0.00
  WS02004411WS02004412    1.00   0.07  0.00  0.00  0.93  0.00  0.00  0.00  0.00  0.00
  WS02004412WS02004413    1.00   0.07  0.00  0.00  0.92  0.01  0.00  0.00  0.00  0.00
  WS02004413WS02003067    1.00   0.07  0.02  0.00  0.00  0.00  0.91  0.00  0.00  0.00
  WS02006109WS02006110    1.00   0.00  0.02  0.00  0.97  0.00  0.01  0.00  0.00  0.00
  WS02006110WS02006113    1.00   0.02  0.01  0.00  0.96  0.00  0.00  0.00  0.00  0.00
  WS02006111WS02006112    1.00   0.04  0.00  0.00  0.95  0.01  0.00  0.01  0.77  0.00
  WS02006112WS02006115    1.00   0.04  0.01  0.00  0.94  0.00  0.01  0.00  0.00  0.00
  WS02006113WS02006111    1.00   0.04  0.00  0.00  0.17  0.80  0.00  0.00  0.13  0.00
  WS02006115WS02006116    1.00   0.05  0.00  0.00  0.94  0.00  0.00  0.01  0.00  0.00
  WS02006116WS02004401    1.00   0.05  0.00  0.00  0.95  0.00  0.00  0.00  0.00  0.00
  WS02006228WS02006109    1.00   0.00  0.00  0.00  0.99  0.00  0.00  0.01  0.00  0.00
  WS02006229WS02006228    1.00   0.00  0.00  0.00  0.97  0.00  0.00  0.03  0.00  0.00
  WS02006230WS02006229    1.00   0.00  0.00  0.00  0.97  0.00  0.00  0.03  0.00  0.00
  WS02006231WS02006230    1.00   0.01  0.00  0.00  0.50  0.00  0.50  0.00  0.00  0.00
  WS02006232WS02006231    1.00   0.00  0.00  0.00  0.99  0.00  0.01  0.00  0.00  0.00
  WS02006234WS02006232    1.00   0.00  0.00  0.00  0.99  0.01  0.00  0.00  0.00  0.00
  WS02006235WS02006234    1.00   0.00  0.00  0.00  0.95  0.00  0.05  0.00  0.00  0.00
  WS02006238WS02006235    1.00   0.00  0.00  0.00  1.00  0.00  0.00  0.00  0.00  0.00
  WS02006239WS02006238    1.00   0.00  0.00  0.00  1.00  0.00  0.00  0.00  0.04  0.00
  WS02006240WS02006239    1.00   0.00  0.00  0.00  0.89  0.00  0.00  0.10  0.01  0.00
  WS02006242WS02006240    1.00   0.01  0.00  0.00  0.99  0.00  0.01  0.00  0.00  0.00
  WS02006243WS02006242    1.00   0.01  0.00  0.00  0.99  0.00  0.00  0.01  0.40  0.00
  WS02006245WS02006243    1.00   0.01  0.00  0.00  0.92  0.00  0.00  0.07  0.01  0.00
  WS02006247WS02006245    1.00   0.00  0.00  0.00  0.97  0.00  0.00  0.03  0.00  0.00
  WS02006248WS02006247    1.00   0.00  0.00  0.00  0.99  0.00  0.00  0.01  0.36  0.00
  WS02006249WS02006248    1.00   0.00  0.00  0.00  0.79  0.00  0.21  0.00  0.00  0.00
  WS02006251WS02006249    1.00   0.00  0.00  0.00  1.00  0.00  0.00  0.00  0.34  0.00
  WS02006252WS02006251    1.00   0.00  0.02  0.00  0.18  0.00  0.80  0.00  0.00  0.00
  WS02006253WS02006251    1.00   0.00  0.00  0.00  1.00  0.00  0.00  0.00  0.00  0.00
  WS02006256WS02006235    1.00   0.00  0.00  0.00  1.00  0.00  0.00  0.00  0.00  0.00
  WS02006280WS02006229    1.00   0.22  0.00  0.00  0.12  0.03  0.00  0.63  0.02  0.00
  WS02006284WS02006280    1.00   0.22  0.00  0.00  0.08  0.01  0.00  0.69  0.00  0.00
  WS02006287WS02006284    1.00   0.20  0.04  0.00  0.32  0.44  0.00  0.00  0.56  0.00
  WSF200WS02003060        1.00   0.00  0.10  0.00  0.43  0.48  0.00  0.00  0.51  0.00
  YS02001580YS02001583    1.00   0.33  0.47  0.00  0.20  0.00  0.00  0.00  0.62  0.00
  YS02001583YS02001586    1.00   0.28  0.40  0.00  0.32  0.00  0.00  0.00  0.63  0.00
  YS02001586YS02001590    1.00   0.22  0.00  0.00  0.56  0.05  0.00  0.17  0.47  0.00
  YS02001590YS02001593    1.00   0.22  0.01  0.00  0.08  0.00  0.70  0.00  0.00  0.00
  YS02001593YS02001596    1.00   0.22  0.00  0.00  0.10  0.01  0.00  0.67  0.02  0.00
  YS02001596YS02001600    1.00   0.22  0.00  0.00  0.17  0.04  0.00  0.56  0.08  0.00
  YS02001600YS02001601    1.00   0.22  0.01  0.00  0.77  0.00  0.00  0.00  0.53  0.00
  YS02001601YS02001602    1.00   0.22  0.01  0.00  0.78  0.00  0.00  0.00  0.00  0.00
  YS02001602YS02001605    1.00   0.22  0.00  0.00  0.77  0.00  0.00  0.00  0.00  0.00
  YS02001605YS02001607    1.00   0.23  0.00  0.00  0.77  0.00  0.00  0.00  0.00  0.00
  YS02001607YS02001610    1.00   0.22  0.01  0.00  0.77  0.00  0.00  0.00  0.03  0.00
  YS02001610YS02001613    1.00   0.22  0.00  0.00  0.78  0.00  0.00  0.00  0.02  0.00
  YS02001613YS02001616    1.00   0.22  0.00  0.00  0.78  0.00  0.00  0.00  0.01  0.00
  YS02001616YS02001619    1.00   0.22  0.00  0.00  0.78  0.00  0.00  0.00  0.00  0.00
  YS02001619YS02001622    1.00   0.22  0.00  0.00  0.78  0.00  0.00  0.00  0.09  0.00
  YS02001622YS02001625    1.00   0.22  0.00  0.00  0.78  0.00  0.00  0.00  0.09  0.00
  YS02001625YS02001629    1.00   0.22  0.04  0.00  0.12  0.00  0.62  0.00  0.00  0.00
  YS02001629YS02163301    1.00   0.24  0.00  0.00  0.75  0.00  0.00  0.00  0.00  0.00
  YS02001633YS02163601    1.00   0.00  0.02  0.00  0.98  0.00  0.00  0.00  0.21  0.00
  YS02001641YS02001644    1.00   0.00  0.02  0.00  0.98  0.00  0.00  0.00  0.00  0.00
  YS02001644YS02001647    1.00   0.00  0.26  0.00  0.74  0.00  0.00  0.00  0.00  0.00
  YS02001647YS02001649    1.00   0.00  0.25  0.00  0.24  0.51  0.00  0.00  0.46  0.00
  YS02001649YS02001757    1.00   0.00  0.00  0.00  0.71  0.29  0.00  0.00  0.87  0.00
  YS02001652YS02001649    1.00   0.00  0.00  0.00  0.95  0.05  0.00  0.00  0.73  0.00
  YS02001655YS02001652    1.00   0.00  0.00  0.00  0.14  0.02  0.00  0.84  0.11  0.00
  YS02001658YS02001655    1.00   0.00  0.23  0.00  0.35  0.42  0.00  0.00  0.70  0.00
  YS02001661YS02001658    1.00   0.23  0.00  0.00  0.14  0.63  0.00  0.00  0.69  0.00
  YS02001664YS02001661    1.00   0.22  0.00  0.00  0.65  0.13  0.00  0.00  0.83  0.00
  YS02001745YS02001748    1.00   0.00  0.00  0.00  0.00  0.00  0.00  1.00  0.00  0.00
  YS02001748YS02001751    1.00   0.00  0.00  0.00  0.60  0.40  0.00  0.00  0.80  0.00
  YS02001751YS02001754    1.00   0.00  0.00  0.00  0.08  0.01  0.00  0.91  0.06  0.00
  YS02001754YS02001757    1.00   0.00  0.00  0.00  1.00  0.00  0.00  0.00  0.89  0.00
  YS02001757CaochengTiaoxuchi    1.00   0.00  0.00  0.00  0.41  0.59  0.00  0.00  0.37  0.00
  YS02001759YS02001757    1.00   0.00  0.00  0.00  1.00  0.00  0.00  0.00  0.67  0.00
  YS02001762YS02001759    1.00   0.00  0.00  0.00  1.00  0.00  0.00  0.00  0.07  0.00
  YS02001765YS02001762    1.00   0.00  0.00  0.00  1.00  0.00  0.00  0.00  0.71  0.00
  YS02001767YS02001765    1.00   0.00  0.00  0.00  1.00  0.00  0.00  0.00  0.00  0.00
  YS02001770YS02001767    1.00   0.00  0.00  0.00  1.00  0.00  0.00  0.00  0.00  0.00
  YS02001774YS02001770    1.00   0.01  0.22  0.00  0.78  0.00  0.00  0.00  0.06  0.00
  YS02001779YS02001774    1.00   0.00  0.00  0.00  1.00  0.00  0.00  0.00  0.79  0.00
  YS02001783YS02001784    1.00   0.00  0.27  0.00  0.73  0.00  0.00  0.00  0.43  0.00
  YS02001784YS02001785    1.00   0.00  0.00  0.00  1.00  0.00  0.00  0.00  0.25  0.00
  YS02001786YS02001788    1.00   0.00  0.00  0.00  0.67  0.33  0.00  0.00  0.00  0.00
  YS02001788YS02001790    1.00   0.00  0.00  0.00  0.30  0.70  0.00  0.00  0.83  0.00
  YS02001790YS02001791    1.00   0.00  0.00  0.00  0.04  0.96  0.00  0.00  0.20  0.00
  YS02001791YS02001793    1.00   0.00  0.00  0.00  0.01  0.99  0.00  0.00  0.00  0.00
  YS02001793JiankangQianchi    1.00   0.00  0.01  0.00  0.20  0.80  0.00  0.00  0.23  0.00
  YS02001882YS02001884    1.00   0.24  0.01  0.00  0.76  0.00  0.00  0.00  0.00  0.00
  YS02001884YS02001887    1.00   0.13  0.08  0.00  0.79  0.00  0.00  0.00  0.00  0.00
  YS02001887YS02001890    1.00   0.00  0.01  0.00  0.94  0.00  0.06  0.00  0.00  0.00
  YS02001890YS02001895    1.00   0.01  0.24  0.00  0.75  0.00  0.00  0.00  0.00  0.00
  YS02001895YS02001898    1.00   0.25  0.00  0.00  0.72  0.00  0.03  0.00  0.00  0.00
  YS02001898YS02001901    1.00   0.25  0.00  0.00  0.75  0.00  0.00  0.00  0.01  0.00
  YS02001901YS02001904    1.00   0.25  0.00  0.00  0.75  0.00  0.00  0.00  0.00  0.00
  YS02001904YS02001907    1.00   0.01  0.24  0.00  0.75  0.00  0.00  0.00  0.00  0.00
  YS02001907YS02006553    1.00   0.01  0.05  0.00  0.94  0.00  0.00  0.00  0.00  0.00
  YS02001910YS02001907    1.00   0.00  0.00  0.00  0.94  0.00  0.00  0.06  0.17  0.00
  YS02001915YS02001910    1.00   0.00  0.00  0.00  0.96  0.04  0.00  0.00  0.24  0.00
  YS02001918YS02001915    1.00   0.00  0.01  0.00  0.95  0.03  0.00  0.00  0.72  0.00
  YS02001920YS02001918    1.00   0.00  0.01  0.00  0.99  0.00  0.00  0.00  0.00  0.00
  YS02001923YS02001920    1.00   0.00  0.00  0.00  1.00  0.00  0.00  0.00  0.95  0.00
  YS02001926YS02001923    1.00   0.00  0.16  0.00  0.02  0.00  0.81  0.00  0.00  0.00
  YS02001929YS02001926    1.00   0.00  0.22  0.00  0.78  0.00  0.00  0.00  0.83  0.00
  YS02006553YS02006556    1.00   0.03  0.00  0.00  0.97  0.00  0.00  0.00  0.04  0.00
  YS02006556YS02006558    1.00   0.00  0.01  0.00  0.99  0.00  0.00  0.00  0.00  0.00
  YS02006558YS02006561    1.00   0.27  0.00  0.00  0.00  0.73  0.00  0.00  0.26  0.00
  YS02006561YS02001783    1.00   0.27  0.00  0.00  0.06  0.67  0.00  0.00  0.62  0.00
  YS02163301YS02001633    1.00   0.00  0.24  0.00  0.76  0.00  0.00  0.00  0.00  0.00
  YS02163601YS02164001    1.00   0.00  0.18  0.00  0.82  0.00  0.00  0.00  0.00  0.00
  YS02164001YS02001641    1.00   0.02  0.16  0.00  0.81  0.00  0.00  0.00  0.08  0.00
  YSB1154YSB6556          1.00   0.22  0.00  0.00  0.78  0.00  0.00  0.00  0.03  0.00
  YSB1171HS02004479       1.00   0.07  0.00  0.00  0.89  0.01  0.00  0.03  0.14  0.00
  YSB1174YSB1171          1.00   0.10  0.10  0.00  0.80  0.00  0.00  0.00  0.00  0.00
  YSB6556YSB1171          1.00   0.08  0.14  0.00  0.78  0.00  0.00  0.00  0.00  0.00
  
  
  *************************
  Conduit Surcharge Summary
  *************************
  
  ----------------------------------------------------------------------------
                                                           Hours        Hours 
                         --------- Hours Full --------   Above Full   Capacity
  Conduit                Both Ends  Upstream  Dnstream   Normal Flow   Limited
  ----------------------------------------------------------------------------
  HS02004478WS02006287        0.12      0.12      0.29      0.01         0.01
  HS02004479HS02004480        0.30      0.30      0.31      0.01         0.01
  HS02004480HS02004478        0.23      0.29      0.23      1.26         0.23
  HS02004770HS02004777        0.20      0.20      0.20      0.15         0.09
  HS02004777HS02004785        0.15      0.15      0.20      0.01         0.01
  HS02004785HS02004788        0.13      0.15      0.13      0.92         0.13
  HS02004788HS02004792        0.13      0.13      0.26      0.01         0.01
  HS02004792HS02004799        0.26      0.26      0.36      0.01         0.01
  HS02004799HS02004480        0.29      0.29      0.36      0.43         0.01
  HS02004802HS02004478        0.25      0.25      0.30      0.01         0.01
  HS02004807HS02004802        0.28      0.28      0.29      0.01         0.01
  HS02004817HS02004807        0.28      0.28      0.74      0.01         0.01
  HS02004817HS02004824        0.14      0.14      0.74      0.01         0.01
  HS02004824HS02004830        0.11      0.11      0.14      0.01         0.01
  HS02004830HS02004837        0.01      0.01      0.11      0.01         0.01
  HS02004837HS02004842        0.01      0.01      0.22      0.01         0.01
  HS02004842HS02004848        0.01      0.01      0.22      0.01         0.01
  HS02004848HS02004852        0.01      0.01      0.01      0.01         0.01
  HS02004852HS02004856        0.01      0.01      0.06      0.01         0.01
  HS02004856HS02004862        0.01      0.01      0.07      0.01         0.01
  HS02004862HS02004870        0.07      0.07      0.10      0.01         0.01
  HS02004870HS02004876        0.10      0.10      0.18      0.01         0.01
  HS02004876HS02004881        0.17      0.18      0.17      0.95         0.16
  HS02004881HS02006253        0.17      0.17      1.12      0.01         0.01
  HS02004901HS02004770        0.20      0.20      0.21      0.01         0.01
  WS02003072WS02003073        0.01      0.01      0.01      2.44         0.01
  WS02004401WS02004402        1.11      1.11      1.13      0.88         0.87
  WS02004402WS02004403        1.13      1.13      1.14      1.10         1.09
  WS02004403WS02004404        1.14      1.14      1.28      0.01         0.01
  WS02004404WS02004405        1.25      1.28      1.25      3.93         1.25
  WS02004405WS02004406        1.22      1.25      1.22      1.63         1.22
  WS02004406WS02004407        0.01      0.01      1.22      0.01         0.01
  WS02004407WS02004409        0.01      0.01      0.51      0.01         0.01
  WS02004409WS02004410        0.50      0.51      0.50      1.02         0.50
  WS02004410WS02004411        0.47      0.50      0.47      1.08         0.47
  WS02004411WS02004412        0.38      0.47      0.38      1.10         0.38
  WS02004412WS02004413        0.38      0.38      0.85      0.01         0.01
  WS02004413WS02003067        0.01      0.01      0.85      0.01         0.01
  WS02006109WS02006110        1.51      1.51      2.14      1.52         0.01
  WS02006110WS02006113        0.82      0.82      2.06      0.19         0.01
  WS02006111WS02006112        0.80      0.80      2.42      0.01         0.01
  WS02006112WS02006115        1.04      1.04      1.76      0.01         0.01
  WS02006113WS02006111        0.81      0.82      0.81      0.88         0.81
  WS02006115WS02006116        1.05      1.05      1.06      1.01         0.99
  WS02006116WS02004401        1.10      1.10      1.11      1.08         1.07
  WS02006228WS02006109        2.04      2.14      2.04      2.70         2.04
  WS02006229WS02006228        2.04      2.05      2.04      2.43         2.04
  WS02006230WS02006229        2.25      2.36      2.25      4.18         1.67
  WS02006231WS02006230        1.27      1.27      1.44      3.62         0.56
  WS02006232WS02006231        1.39      1.39      2.05      0.01         0.06
  WS02006234WS02006232        1.67      1.67      2.05      0.01         0.01
  WS02006235WS02006234        1.61      1.61      1.72      2.96         0.53
  WS02006238WS02006235        1.75      1.75      1.96      0.01         0.21
  WS02006239WS02006238        1.74      1.80      1.80      1.03         0.42
  WS02006240WS02006239        1.58      1.59      1.60      1.00         0.37
  WS02006242WS02006240        1.56      1.57      1.86      1.63         0.50
  WS02006243WS02006242        1.51      1.51      1.74      0.01         0.01
  WS02006245WS02006243        1.44      1.45      1.47      0.46         0.28
  WS02006247WS02006245        1.43      1.50      1.43      2.59         0.69
  WS02006248WS02006247        1.38      1.38      1.46      0.01         0.01
  WS02006249WS02006248        1.35      1.35      1.40      1.83         0.01
  WS02006251WS02006249        1.37      1.38      1.40      1.30         1.06
  WS02006252WS02006251        1.40      1.40      1.56      1.23         0.01
  WS02006253WS02006251        1.37      1.37      1.43      0.42         0.02
  WS02006256WS02006235        3.30      3.31      5.96      0.57         0.01
  WS02006280WS02006229        0.40      0.40      0.51      0.01         0.01
  WS02006284WS02006280        0.31      0.31      0.38      0.01         0.01
  WS02006287WS02006284        0.23      0.23      0.32      0.01         0.01
  YS02001580YS02001583        0.03      0.03      0.17      0.01         0.01
  YS02001583YS02001586        0.04      0.04      0.30      0.01         0.01
  YS02001586YS02001590        0.31      0.31      0.37      0.01         0.01
  YS02001590YS02001593        0.38      0.38      0.39      0.39         0.01
  YS02001593YS02001596        0.39      0.39      0.47      0.01         0.01
  YS02001596YS02001600        0.51      0.51      0.60      0.01         0.01
  YS02001600YS02001601        0.65      0.65      0.93      0.01         0.01
  YS02001601YS02001602        0.81      0.81      0.97      0.62         0.01
  YS02001602YS02001605        0.76      0.76      0.81      1.79         0.01
  YS02001605YS02001607        0.72      0.76      0.72      0.88         0.72
  YS02001607YS02001610        0.31      0.31      0.33      0.01         0.01
  YS02001610YS02001613        0.30      0.30      0.33      0.01         0.01
  YS02001613YS02001616        0.26      0.26      0.30      0.01         0.01
  YS02001616YS02001619        0.24      0.24      0.26      0.01         0.01
  YS02001619YS02001622        0.23      0.24      0.23      0.40         0.23
  YS02001622YS02001625        0.23      0.23      0.42      0.01         0.01
  YS02001625YS02001629        0.11      0.11      0.42      0.01         0.01
  YS02001629YS02163301        0.41      0.41      0.41      0.29         0.25
  YS02001633YS02163601        0.43      0.43      0.46      0.32         0.32
  YS02001641YS02001644        0.27      0.33      0.27      1.03         0.27
  YS02001644YS02001647        0.01      0.01      0.27      0.01         0.01
  YS02001649YS02001757        0.01      0.01      0.01      0.14         0.01
  YS02001757CaochengTiaoxuchi        0.01      0.01      0.01      0.15         0.01
  YS02001770YS02001767        0.01      0.01      0.01      0.27         0.01
  YS02001783YS02001784        0.20      0.24      0.20      0.35         0.20
  YS02001784YS02001785        0.02      0.20      0.02      0.54         0.02
  YS02001786YS02001788        0.01      0.02      0.01      0.43         0.01
  YS02001788YS02001790        0.01      0.01      0.03      0.01         0.01
  YS02001790YS02001791        0.03      0.03      0.03      0.15         0.01
  YS02001791YS02001793        0.03      0.03      0.06      0.01         0.01
  YS02001793JiankangQianchi        0.05      0.05      0.33      0.01         0.01
  YS02001882YS02001884        0.11      0.11      0.14      0.01         0.01
  YS02001884YS02001887        0.18      0.18      0.20      0.01         0.01
  YS02001887YS02001890        0.22      0.22      0.23      0.01         0.01
  YS02001890YS02001895        0.09      0.09      0.25      0.01         0.01
  YS02001895YS02001898        0.07      0.07      0.09      0.01         0.01
  YS02001898YS02001901        0.10      0.10      0.18      0.01         0.01
  YS02001901YS02001904        0.17      0.17      0.18      0.01         0.01
  YS02001904YS02001907        0.17      0.17      0.42      0.01         0.01
  YS02001907YS02006553        0.55      0.55      0.60      0.01         0.01
  YS02001910YS02001907        0.25      0.25      0.41      0.01         0.01
  YS02001915YS02001910        0.12      0.12      0.25      0.01         0.01
  YS02001918YS02001915        0.01      0.01      0.12      0.01         0.01
  YS02006553YS02006556        0.34      0.34      0.42      0.01         0.01
  YS02006556YS02006558        0.38      0.38      0.44      0.01         0.01
  YS02006558YS02006561        0.01      0.33      0.01      0.51         0.01
  YS02006561YS02001783        0.01      0.01      0.24      0.01         0.01
  YS02163301YS02001633        0.41      0.41      0.45      0.01         0.01
  YS02163601YS02164001        0.35      0.35      0.46      0.18         0.01
  YS02164001YS02001641        0.33      0.35      0.33      0.50         0.33
  YSB1154YSB6556              0.34      0.34      0.46      0.01         0.01
  YSB1171HS02004479           0.26      0.26      0.46      0.01         0.01
  YSB1174YSB1171              0.39      0.39      0.66      0.01         0.01
  YSB6556YSB1171              0.34      0.34      0.79      0.01         0.01
  
  
  ***************
  Pumping Summary
  ***************
  
  ---------------------------------------------------------------------------------------------------------
                                                  Min       Avg       Max     Total     Power    % Time Off
                        Percent   Number of      Flow      Flow      Flow    Volume     Usage    Pump Curve
  Pump                 Utilized   Start-Ups       LPS       LPS       LPS  10^6 ltr     Kw-hr    Low   High
  ---------------------------------------------------------------------------------------------------------
  CC-R1                   58.28           7      0.00    390.88    683.00     4.205     67.09    0.0  100.0
  CC-R2                   33.24           7      0.00    352.70    683.00     2.176     34.44    0.0  100.0
  CC-S1                   77.70           8      0.00    133.53    200.00     1.928     15.34    0.0   60.5
  CC-S2                   44.32           9      0.00    104.71    200.00     1.053      9.21    0.0   74.7
  JK-R1                   66.61           9      0.00    150.14   1000.00     1.849      6.22    0.0    0.0
  JK-R2                   30.62           8      0.00    169.03   1000.00     0.857      3.95    0.0    0.0
  JK-S                    44.36          10      0.00    146.24    300.00     1.132     22.54    0.0    0.0
  XR-1                    97.22           1      0.00     95.00     95.00     1.995      8.84    0.0    0.0
  XR-2                    91.93           1      0.00     95.00     95.00     1.886      8.00    0.0    0.0
  XR-3                     0.00           0      0.00      0.00      0.00     0.000      0.00    0.0    0.0
  XR-4                     0.00           0      0.00      0.00      0.00     0.000      0.00    0.0    0.0
  

  Analysis begun on:  Mon Aug 22 16:56:05 2022
  Analysis ended on:  Mon Aug 22 16:56:09 2022
  Total elapsed time: 00:00:04