
  OWA STORM WATER MANAGEMENT MODEL - VERSION v5.1.14 (OWA 2022-07-31)
  --------------------------------------------------------------

  WARNING 04: minimum elevation drop used for Conduit WS02004404WS02004405
  WARNING 03: negative offset ignored for Link YS02001904YS02001907
  
  *********************************************************
  NOTE: The summary statistics displayed in this report are
  based on results found at every computational time step,  
  not just on results from each reporting time step.
  *********************************************************
  
  ****************
  Analysis Options
  ****************
  Flow Units ............... LPS
  Process Models:
    Rainfall/Runoff ........ YES
    RDII ................... NO
    Snowmelt ............... NO
    Groundwater ............ NO
    Flow Routing ........... YES
    Ponding Allowed ........ NO
    Water Quality .......... NO
  Infiltration Method ...... HORTON
  Flow Routing Method ...... DYNWAVE
  Surcharge Method ......... EXTRAN
  Starting Date ............ 01/01/2000 00:00:00
  Ending Date .............. 01/01/2000 06:00:00
  Antecedent Dry Days ...... 8.0
  Report Time Step ......... 00:01:00
  Wet Time Step ............ 00:01:00
  Dry Time Step ............ 00:01:00
  Routing Time Step ........ 30.00 sec
  Variable Time Step ....... YES
  Maximum Trials ........... 8
  Number of Threads ........ 4
  Head Tolerance ........... 0.001500 m
  
  
  **************************        Volume         Depth
  Runoff Quantity Continuity     hectare-m            mm
  **************************     ---------       -------
  Total Precipitation ......         2.067        34.122
  Evaporation Loss .........         0.000         0.000
  Infiltration Loss ........         0.211         3.485
  Surface Runoff ...........         1.792        29.587
  Final Storage ............         0.064         1.059
  Continuity Error (%) .....        -0.027
  
  
  **************************        Volume        Volume
  Flow Routing Continuity        hectare-m      10^6 ltr
  **************************     ---------     ---------
  Dry Weather Inflow .......         0.472         4.722
  Wet Weather Inflow .......         1.793        17.927
  Groundwater Inflow .......         0.000         0.000
  RDII Inflow ..............         0.000         0.000
  External Inflow ..........         0.078         0.784
  External Outflow .........         1.887        18.867
  Flooding Loss ............         0.564         5.637
  Evaporation Loss .........         0.000         0.000
  Exfiltration Loss ........         0.000         0.000
  Initial Stored Volume ....         0.303         3.031
  Final Stored Volume ......         0.296         2.958
  Continuity Error (%) .....        -3.776
  
  
  *************************
  Highest Continuity Errors
  *************************
  Node JK-storage (-28.35%)
  Node YS02001884 (5.47%)
  Node YS02001583 (-5.05%)
  Node HS02004842 (2.09%)
  Node HS02004817 (1.79%)
  
  
  ***************************
  Time-Step Critical Elements
  ***************************
  Link WS02006252WS02006251 (44.35%)
  Link WS02006280WS02006229 (30.53%)
  Link WS02004404WS02004405 (4.28%)
  Link WS02006238WS02006235 (3.80%)
  Link YS02001793JiankangQianchi (3.39%)
  
  
  ********************************
  Highest Flow Instability Indexes
  ********************************
  Link WS02006113WS02006111 (34)
  Link WS02006111WS02006112 (16)
  Link WS02006238WS02006235 (13)
  Link WS02004404WS02004405 (13)
  Link WS02006252WS02006251 (13)
  
  
  *************************
  Routing Time Step Summary
  *************************
  Minimum Time Step           :     0.50 sec
  Average Time Step           :     1.75 sec
  Maximum Time Step           :    30.00 sec
  Percent in Steady State     :    -0.00
  Average Iterations per Step :     2.90
  Percent Not Converging      :     9.49
  
  
  ***************************
  Subcatchment Runoff Summary
  ***************************
  
  ------------------------------------------------------------------------------------------------------------------------------
                            Total      Total      Total      Total     Imperv       Perv      Total       Total     Peak  Runoff
                           Precip      Runon       Evap      Infil     Runoff     Runoff     Runoff      Runoff   Runoff   Coeff
  Subcatchment                 mm         mm         mm         mm         mm         mm         mm    10^6 ltr      LPS
  ------------------------------------------------------------------------------------------------------------------------------
  sub0                      34.12       0.00       0.00       0.91      30.47       1.48      31.95        0.03    17.60   0.936
  sub1                      34.12       0.00       0.00       1.52      29.07       2.23      31.30        0.21   123.31   0.917
  sub10                     34.12       0.00       0.00       1.08      30.06       1.65      31.71        0.35   212.71   0.929
  sub11                     34.12       0.00       0.00       1.07      30.09       1.66      31.76        0.37   235.95   0.931
  sub12                     34.12       0.00       0.00       1.74      28.49       2.70      31.20        0.27   183.88   0.914
  sub14                     34.12       0.00       0.00       1.21      29.75       1.86      31.61        0.30   188.07   0.926
  sub15                     34.12       0.00       0.00       4.67      22.88       5.57      28.45        0.49   273.03   0.834
  sub16                     34.12       0.00       0.00       4.86      21.94       6.41      28.34        0.30   180.80   0.831
  sub17                     34.12       0.00       0.00       4.73      22.26       6.19      28.45        0.24   147.59   0.834
  sub2                      34.12       0.00       0.00       6.57      20.54       6.06      26.60        0.25   116.60   0.780
  sub22                     34.12       0.00       0.00       7.05      18.65       7.63      26.28        1.66   880.46   0.770
  sub23                     34.12       0.00       0.00       5.77      20.61       6.85      27.47        1.31   739.27   0.805
  sub3                      34.12       0.00       0.00       7.05      20.48       5.58      26.06        0.59   243.62   0.764
  sub4                      34.12       0.00       0.00       1.68      28.79       2.07      30.87        0.64   268.92   0.905
  sub5                      34.12       0.00       0.00       0.94      30.38       1.45      31.82        0.36   215.16   0.933
  sub60                     34.12       0.00       0.00       1.63      28.79       2.47      31.26        0.41   264.64   0.916
  sub61                     34.12       0.00       0.00       2.35      27.16       3.45      30.62        0.56   361.63   0.897
  sub62                     34.12       0.00       0.00       1.08      30.05       1.65      31.70        0.87   520.47   0.929
  sub63                     34.12       0.00       0.00       4.30      23.23       5.59      28.83        0.65   391.70   0.845
  sub64                     34.12       0.00       0.00       2.18      27.74       2.94      30.68        0.74   410.12   0.899
  sub65                     34.12       0.00       0.00       1.89      28.36       2.55      30.91        0.85   455.37   0.906
  sub66                     34.12       0.00       0.00       5.21      23.05       4.68      27.74        1.29   547.87   0.813
  sub67                     34.12       0.00       0.00       1.05      30.13       1.68      31.80        0.59   395.47   0.932
  sub68                     34.12       0.00       0.00       1.95      28.12       2.83      30.95        0.85   526.74   0.907
  sub69                     34.12       0.00       0.00       1.66      28.82       3.46      32.27        1.19   622.83   0.946
  sub7                      34.12       0.00       0.00       1.20      29.78       1.87      31.65        0.11    69.45   0.928
  sub70                     34.12       0.00       0.00       5.43      22.25       6.17      28.42        0.82   312.80   0.833
  sub71                     34.12       0.00       0.00       1.11      29.98       1.62      31.61        0.83   448.23   0.926
  sub72                     34.12       0.00       0.00       0.98      30.21       1.41      31.61        0.43   208.70   0.926
  sub8                      34.12       0.00       0.00       1.21      29.76       1.86      31.62        0.20   127.90   0.927
  sub9                      34.12       0.00       0.00       1.21      29.76       1.86      31.62        0.15    95.59   0.927
  
  
  ******************
  Node Depth Summary
  ******************
  
  ---------------------------------------------------------------------------------
                                 Average  Maximum  Maximum  Time of Max    Reported
                                   Depth    Depth      HGL   Occurrence   Max Depth
  Node                 Type       Meters   Meters   Meters  days hr:min      Meters
  ---------------------------------------------------------------------------------
  HS02004478           JUNCTION     0.16     1.61    10.84     0  01:49        1.40
  HS02004479           JUNCTION     0.23     1.74    10.94     0  01:49        1.61
  HS02004480           JUNCTION     0.20     1.72    10.96     0  01:49        1.57
  HS02004770           JUNCTION     0.20     1.42    11.25     0  01:46        1.42
  HS02004777           JUNCTION     0.22     1.48    11.28     0  01:46        1.44
  HS02004785           JUNCTION     0.14     1.49    11.39     0  01:45        1.32
  HS02004788           JUNCTION     0.11     1.42    11.32     0  01:46        1.31
  HS02004792           JUNCTION     0.15     1.60    11.12     0  01:44        1.60
  HS02004799           JUNCTION     0.26     1.76    10.97     0  01:49        1.73
  HS02004802           JUNCTION     0.24     1.82    10.95     0  01:49        1.51
  HS02004807           JUNCTION     0.21     1.92    11.09     0  01:49        1.47
  HS02004817           JUNCTION     0.51     2.44    11.29     0  01:49        1.79
  HS02004824           JUNCTION     0.10     2.01    11.41     0  01:49        1.24
  HS02004830           JUNCTION     0.11     2.03    11.50     0  01:49        1.17
  HS02004837           JUNCTION     0.09     2.00    11.58     0  01:49        1.05
  HS02004842           JUNCTION     0.39     2.22    11.49     0  01:49        1.34
  HS02004848           JUNCTION     0.07     1.98    11.58     0  01:49        0.99
  HS02004852           JUNCTION     0.07     2.00    11.51     0  01:49        1.04
  HS02004856           JUNCTION     0.11     1.98    11.41     0  01:49        1.08
  HS02004862           JUNCTION     0.08     1.92    11.30     0  01:49        1.07
  HS02004870           JUNCTION     0.08     1.87    11.15     0  01:49        1.09
  HS02004876           JUNCTION     0.12     1.93    10.96     0  01:49        1.25
  HS02004881           JUNCTION     0.07     1.68    10.71     0  01:49        1.13
  HS02004901           JUNCTION     0.21     1.42    11.24     0  01:46        1.42
  WS02001211           JUNCTION     0.64     0.83     5.66     0  01:51        0.82
  WS02001212           JUNCTION     0.38     0.58     5.65     0  01:50        0.57
  WS02001213           JUNCTION     0.60     0.88     5.65     0  01:50        0.88
  WS02003059           JUNCTION     0.66     0.94     5.63     0  01:52        0.94
  WS02003060           JUNCTION     0.37     0.68     5.61     0  01:53        0.68
  WS02003066           JUNCTION     0.21     0.44     6.00     0  01:51        0.44
  WS02003067           JUNCTION     0.53     0.92     6.24     0  01:45        0.91
  WS02003069           JUNCTION     0.42     0.76     5.35     0  01:53        0.76
  WS02003072           JUNCTION     0.48     0.80     5.17     0  01:54        0.80
  WS02003073           JUNCTION     0.29     0.51     4.57     0  01:53        0.50
  WS02004138           JUNCTION     0.14     0.14     7.39     0  00:29        0.14
  WS02004139           JUNCTION     0.58     0.75     5.66     0  01:51        0.75
  WS02004401           JUNCTION     0.74     2.14     8.14     0  01:43        1.73
  WS02004402           JUNCTION     0.76     2.08     8.04     0  01:43        1.67
  WS02004403           JUNCTION     0.77     1.99     7.92     0  01:43        1.60
  WS02004404           JUNCTION     0.84     1.96     7.81     0  01:43        1.62
  WS02004405           JUNCTION     0.83     1.86     7.71     0  01:43        1.57
  WS02004406           JUNCTION     0.82     1.56     7.39     0  01:43        1.47
  WS02004407           JUNCTION     0.24     0.82     7.14     0  01:50        0.82
  WS02004409           JUNCTION     0.50     1.32     7.09     0  01:48        1.31
  WS02004410           JUNCTION     0.51     1.24     6.96     0  01:50        1.23
  WS02004411           JUNCTION     0.52     1.21     6.89     0  01:44        1.16
  WS02004412           JUNCTION     0.53     1.48     7.12     0  01:44        1.07
  WS02004413           JUNCTION     0.68     1.18     6.65     0  01:44        1.13
  WS02006109           JUNCTION     0.91     2.64     9.26     0  01:46        2.64
  WS02006110           JUNCTION     0.86     2.56     9.14     0  01:43        2.33
  WS02006111           JUNCTION     0.36     2.40     9.11     0  01:43        1.58
  WS02006112           JUNCTION     0.94     2.68     8.56     0  00:00        2.20
  WS02006113           JUNCTION     0.44     2.27     9.16     0  01:43        1.72
  WS02006115           JUNCTION     0.64     2.30     8.44     0  01:43        1.79
  WS02006116           JUNCTION     0.72     2.26     8.30     0  01:43        1.79
  WS02006228           JUNCTION     0.95     3.03     9.68     0  01:49        2.98
  WS02006229           JUNCTION     0.94     3.24     9.93     0  01:49        3.15
  WS02006230           JUNCTION     0.89     2.65     9.39     0  01:43        2.65
  WS02006231           JUNCTION     0.64     2.19     9.31     0  01:44        2.19
  WS02006232           JUNCTION     0.75     2.18     9.22     0  01:43        2.18
  WS02006234           JUNCTION     0.64     1.96     9.12     0  01:43        1.96
  WS02006235           JUNCTION     0.66     1.97     9.13     0  02:00        1.92
  WS02006238           JUNCTION     0.68     1.98     9.12     0  02:00        1.93
  WS02006239           JUNCTION     0.64     1.83     9.04     0  02:00        1.78
  WS02006240           JUNCTION     0.59     1.66     8.95     0  02:00        1.62
  WS02006242           JUNCTION     0.64     1.55     8.82     0  01:40        1.55
  WS02006243           JUNCTION     0.53     1.48     8.90     0  01:41        1.36
  WS02006245           JUNCTION     0.52     1.56     9.04     0  01:41        1.26
  WS02006247           JUNCTION     0.54     1.47     8.97     0  01:41        1.22
  WS02006248           JUNCTION     0.48     1.10     8.69     0  01:41        1.10
  WS02006249           JUNCTION     0.51     1.09     8.69     0  01:41        1.09
  WS02006251           JUNCTION     0.58     2.15     9.82     0  01:49        2.04
  WS02006252           JUNCTION     0.41     1.50     9.74     0  01:42        1.50
  WS02006253           JUNCTION     0.63     2.92    10.56     0  01:49        2.47
  WS02006256           JUNCTION     0.95     2.35     9.28     0  00:46        2.35
  WS02006280           JUNCTION     0.21     1.76    10.03     0  01:49        1.65
  WS02006284           JUNCTION     0.48     1.97    10.37     0  01:49        1.81
  WS02006287           JUNCTION     0.21     1.77    10.73     0  01:49        1.57
  WSF200               JUNCTION     0.21     0.51     5.74     0  01:53        0.50
  YS02001580           JUNCTION     0.05     1.05     9.59     0  01:46        1.05
  YS02001583           JUNCTION     0.07     1.14     9.64     0  01:47        1.11
  YS02001586           JUNCTION     0.14     1.13     9.30     0  01:46        1.13
  YS02001590           JUNCTION     0.22     1.40     9.26     0  01:46        1.39
  YS02001593           JUNCTION     0.16     1.35     9.21     0  01:44        1.33
  YS02001596           JUNCTION     0.22     1.80     9.22     0  01:44        1.69
  YS02001600           JUNCTION     0.28     1.87     9.00     0  01:44        1.87
  YS02001601           JUNCTION     0.45     2.06     8.90     0  01:44        2.06
  YS02001602           JUNCTION     0.38     1.87     8.77     0  01:47        1.87
  YS02001605           JUNCTION     0.34     1.78     8.68     0  01:49        1.77
  YS02001607           JUNCTION     0.33     1.65     8.49     0  01:56        1.64
  YS02001610           JUNCTION     0.36     1.68     8.48     0  01:47        1.68
  YS02001613           JUNCTION     0.33     1.65     8.49     0  01:49        1.64
  YS02001616           JUNCTION     0.27     1.59     8.50     0  01:49        1.57
  YS02001619           JUNCTION     0.26     1.57     8.50     0  01:49        1.55
  YS02001622           JUNCTION     0.24     1.56     8.46     0  01:47        1.54
  YS02001625           JUNCTION     0.42     1.78     8.38     0  01:47        1.78
  YS02001629           JUNCTION     0.33     1.85     8.40     0  01:47        1.80
  YS02001633           JUNCTION     0.39     1.88     8.33     0  01:47        1.85
  YS02001641           JUNCTION     0.37     1.68     8.12     0  01:53        1.66
  YS02001644           JUNCTION     0.37     1.62     8.05     0  01:53        1.60
  YS02001647           JUNCTION     0.20     1.34     7.95     0  02:00        1.29
  YS02001649           JUNCTION     0.24     1.52     7.91     0  02:00        1.37
  YS02001652           JUNCTION     0.15     1.63     8.22     0  02:00        1.29
  YS02001655           JUNCTION     0.11     0.99     7.84     0  01:55        0.95
  YS02001658           JUNCTION     0.07     0.64     7.78     0  01:55        0.63
  YS02001661           JUNCTION     0.11     0.34     7.74     0  01:50        0.33
  YS02001664           JUNCTION     0.05     0.24     8.16     0  01:50        0.24
  YS02001745           JUNCTION     0.04     0.22     7.73     0  01:50        0.22
  YS02001748           JUNCTION     0.07     0.52     7.60     0  01:52        0.49
  YS02001751           JUNCTION     0.09     0.75     7.63     0  01:54        0.73
  YS02001754           JUNCTION     0.13     1.03     7.63     0  01:55        1.01
  YS02001757           JUNCTION     0.25     1.38     7.64     0  02:00        1.35
  YS02001759           JUNCTION     0.21     1.30     7.66     0  01:52        1.28
  YS02001762           JUNCTION     0.20     1.30     7.70     0  01:52        1.27
  YS02001765           JUNCTION     0.19     1.31     7.76     0  01:51        1.25
  YS02001767           JUNCTION     0.19     1.34     7.83     0  01:51        1.24
  YS02001770           JUNCTION     0.20     1.42     7.92     0  01:51        1.31
  YS02001774           JUNCTION     0.24     1.54     7.96     0  01:51        1.45
  YS02001779           JUNCTION     0.11     1.35     8.03     0  01:50        1.31
  YS02001783           JUNCTION     0.18     1.64     7.78     0  01:48        1.46
  YS02001784           JUNCTION     0.20     1.74     7.80     0  02:06        1.41
  YS02001786           JUNCTION     0.17     1.66     7.69     0  01:48        1.32
  YS02001788           JUNCTION     0.13     1.80     7.77     0  01:48        1.29
  YS02001790           JUNCTION     0.16     1.96     7.60     0  01:47        1.28
  YS02001791           JUNCTION     0.11     1.82     7.29     0  02:06        1.26
  YS02001793           JUNCTION     0.11     2.04     6.87     0  02:05        1.80
  YS02001882           JUNCTION     0.22     1.62     8.34     0  01:49        1.61
  YS02001884           JUNCTION     0.29     1.72     8.33     0  01:49        1.70
  YS02001887           JUNCTION     0.37     1.79     8.33     0  01:49        1.78
  YS02001890           JUNCTION     0.40     1.81     8.32     0  01:49        1.80
  YS02001895           JUNCTION     0.20     1.56     8.31     0  01:49        1.55
  YS02001898           JUNCTION     0.20     1.56     8.29     0  01:49        1.55
  YS02001901           JUNCTION     0.28     1.67     8.28     0  01:49        1.66
  YS02001904           JUNCTION     0.26     1.63     8.26     0  01:49        1.63
  YS02001907           JUNCTION     0.56     1.96     8.25     0  01:49        1.96
  YS02001910           JUNCTION     0.36     1.97     8.48     0  01:50        1.97
  YS02001915           JUNCTION     0.23     1.92     8.64     0  01:50        1.91
  YS02001918           JUNCTION     0.12     1.81     8.88     0  01:50        1.80
  YS02001920           JUNCTION     0.20     2.09     9.10     0  01:50        1.92
  YS02001923           JUNCTION     0.08     2.03     9.29     0  01:50        1.66
  YS02001926           JUNCTION     0.12     1.90     9.35     0  01:49        1.46
  YS02001929           JUNCTION     0.06     1.78     9.47     0  01:50        1.05
  YS02006553           JUNCTION     0.56     1.97     8.25     0  01:50        1.95
  YS02006556           JUNCTION     0.53     1.93     8.24     0  01:49        1.92
  YS02006558           JUNCTION     0.57     1.97     8.24     0  01:49        1.96
  YS02006561           JUNCTION     0.11     1.46     8.12     0  01:48        1.08
  YS02163301           JUNCTION     0.34     1.91     8.43     0  01:47        1.81
  YS02163601           JUNCTION     0.43     1.82     8.22     0  01:53        1.80
  YS02164001           JUNCTION     0.36     1.71     8.17     0  01:53        1.69
  YSB1154              JUNCTION     0.34     1.88    10.94     0  01:49        1.82
  YSB1171              JUNCTION     0.51     1.95    10.85     0  01:49        1.95
  YSB1174              JUNCTION     0.31     1.79    10.90     0  01:49        1.75
  YSB6556              JUNCTION     0.25     1.74    10.91     0  01:49        1.70
  CC-1                 OUTFALL      0.00     0.00     0.00     0  00:00        0.00
  CC-2                 OUTFALL      0.00     0.00     0.00     0  00:00        0.00
  JK-1                 OUTFALL      0.00     0.00     0.00     0  00:00        0.00
  JK-2                 OUTFALL      0.00     0.00     0.00     0  00:00        0.00
  WSC                  OUTFALL      0.29     0.50     1.17     0  01:55        0.50
  CC-storage           STORAGE      0.71     1.54     7.04     0  02:10        1.53
  JK-storage           STORAGE      2.48     5.80     6.60     0  01:48        5.80
  XR-storage           STORAGE      7.54     8.66     6.66     0  06:00        8.66
  
  
  *******************
  Node Inflow Summary
  *******************
  
  -------------------------------------------------------------------------------------------------
                                  Maximum  Maximum                  Lateral       Total        Flow
                                  Lateral    Total  Time of Max      Inflow      Inflow     Balance
                                   Inflow   Inflow   Occurrence      Volume      Volume       Error
  Node                 Type           LPS      LPS  days hr:min    10^6 ltr    10^6 ltr     Percent
  -------------------------------------------------------------------------------------------------
  HS02004478           JUNCTION      0.00  2158.34     0  01:50           0        5.59      -0.012
  HS02004479           JUNCTION      0.00   404.39     0  01:50           0        0.64       0.145
  HS02004480           JUNCTION      0.00  2103.36     0  01:47           0        4.48       0.067
  HS02004770           JUNCTION    739.27   755.26     0  01:46        1.31        1.52       0.219
  HS02004777           JUNCTION      0.03   759.49     0  01:46    0.000648         1.4       0.380
  HS02004785           JUNCTION      0.15   757.70     0  01:46     0.00324         1.4       0.028
  HS02004788           JUNCTION    274.70   945.70     0  01:46       0.525        1.92      -0.009
  HS02004792           JUNCTION    880.74  1579.80     0  01:46        1.67        3.58       0.019
  HS02004799           JUNCTION    188.07  1745.32     0  01:47       0.301        3.85       0.072
  HS02004802           JUNCTION      0.00   342.37     0  02:09           0        1.15       0.351
  HS02004807           JUNCTION    235.95   468.21     0  01:46       0.369        1.21       0.340
  HS02004817           JUNCTION      0.60   467.00     0  01:46       0.013       0.919       1.821
  HS02004824           JUNCTION    268.97   670.01     0  01:46       0.645        1.11       0.037
  HS02004830           JUNCTION      0.15   676.89     0  01:46     0.00324       0.668       0.121
  HS02004837           JUNCTION    219.06   883.38     0  01:46       0.487       0.891       0.094
  HS02004842           JUNCTION      0.00   834.68     0  01:47           0       0.629       2.135
  HS02004848           JUNCTION    243.62  1034.28     0  01:47       0.587        1.08       0.007
  HS02004852           JUNCTION      0.00   992.75     0  01:49           0       0.962      -0.012
  HS02004856           JUNCTION     95.59  1067.18     0  01:49       0.152        1.11       0.162
  HS02004862           JUNCTION    116.80  1176.42     0  01:49       0.252        1.37       0.008
  HS02004870           JUNCTION    127.90  1265.71     0  01:48       0.202        1.57       0.057
  HS02004876           JUNCTION    123.31  1290.01     0  01:48       0.208        1.77       0.055
  HS02004881           JUNCTION     69.45  1315.74     0  01:49       0.107        1.88       0.007
  HS02004901           JUNCTION    180.80   387.93     0  01:52       0.297       0.369       0.536
  WS02001211           JUNCTION      7.35   280.76     0  01:49       0.159        4.02       0.827
  WS02001212           JUNCTION      0.00   254.10     0  01:51           0        3.99       0.395
  WS02001213           JUNCTION      0.00   242.41     0  01:51           0        3.98       0.449
  WS02003059           JUNCTION      0.00   232.74     0  01:53           0        3.97       0.807
  WS02003060           JUNCTION     16.53  1487.87     0  01:52       0.357        11.1       0.134
  WS02003066           JUNCTION      0.00  1249.51     0  01:49           0        6.77       0.022
  WS02003067           JUNCTION      0.00  1240.85     0  01:50           0        6.77       0.065
  WS02003069           JUNCTION      0.32  1465.32     0  01:53     0.00691          11       0.141
  WS02003072           JUNCTION      0.00  1460.19     0  01:54           0          11       0.190
  WS02003073           JUNCTION      1.82  1459.24     0  01:54      0.0393          11       0.198
  WS02004138           JUNCTION      0.00   190.00     0  00:29           0        3.88       0.084
  WS02004139           JUNCTION      0.32   193.55     0  01:48     0.00693        3.89       0.689
  WS02004401           JUNCTION      0.00  1241.67     0  01:50           0        6.88       0.173
  WS02004402           JUNCTION      0.00  1241.54     0  01:49           0        6.87       0.163
  WS02004403           JUNCTION      0.00  1241.80     0  01:50           0        6.86       0.158
  WS02004404           JUNCTION      0.16  1242.48     0  01:50      0.0035        6.86       0.131
  WS02004405           JUNCTION      0.04  1242.36     0  01:50    0.000823        6.85       0.185
  WS02004406           JUNCTION      0.00  1242.12     0  01:50           0        6.84       0.320
  WS02004407           JUNCTION      0.00  1241.86     0  01:50           0        6.81       0.024
  WS02004409           JUNCTION      0.00  1240.99     0  01:50           0        6.81       0.046
  WS02004410           JUNCTION      0.00  1240.99     0  01:50           0        6.81       0.070
  WS02004411           JUNCTION      0.00  1240.83     0  01:50           0         6.8       0.088
  WS02004412           JUNCTION      0.00  1240.90     0  01:50           0        6.79       0.117
  WS02004413           JUNCTION      0.00  1240.79     0  01:50           0        6.79       0.202
  WS02006109           JUNCTION      1.23  1308.01     0  00:00      0.0266        6.67       0.171
  WS02006110           JUNCTION      0.00  1119.31     0  01:56           0         6.6      -0.530
  WS02006111           JUNCTION      0.00  1176.04     0  00:00           0        6.62      -0.576
  WS02006112           JUNCTION    147.59  2307.30     0  00:00       0.244        6.91      -0.006
  WS02006113           JUNCTION      0.00  1119.34     0  01:56           0        6.59      -0.682
  WS02006115           JUNCTION      0.00  2152.75     0  00:00           0        6.89       0.068
  WS02006116           JUNCTION      0.00  1241.40     0  01:50           0        6.88       0.024
  WS02006228           JUNCTION      0.00  1218.71     0  01:50           0        6.62       0.100
  WS02006229           JUNCTION      0.00  2165.10     0  01:50           0        7.82       0.091
  WS02006230           JUNCTION     10.28   959.07     0  01:50       0.222        3.47       0.055
  WS02006231           JUNCTION      0.00   453.32     0  01:50           0        2.84      -0.021
  WS02006232           JUNCTION      0.00   453.54     0  01:50           0        2.85       0.186
  WS02006234           JUNCTION      0.00   453.14     0  01:50           0        2.84      -0.108
  WS02006235           JUNCTION      0.00   416.67     0  02:00           0        2.88       0.109
  WS02006238           JUNCTION      0.00   415.90     0  01:51           0        2.57      -0.073
  WS02006239           JUNCTION      0.00   415.50     0  01:51           0        2.56      -0.061
  WS02006240           JUNCTION      0.00   415.01     0  01:51           0        2.54      -0.011
  WS02006242           JUNCTION      0.00   415.29     0  01:51           0        2.53       0.062
  WS02006243           JUNCTION      0.00   400.08     0  03:10           0        2.28      -0.039
  WS02006245           JUNCTION      0.00   400.14     0  03:10           0        2.28       0.132
  WS02006247           JUNCTION      0.00   400.15     0  03:10           0        2.28       0.015
  WS02006248           JUNCTION      0.00   400.13     0  03:10           0        2.43       0.026
  WS02006249           JUNCTION      0.00  1331.59     0  01:49           0        4.54       0.043
  WS02006251           JUNCTION      0.08  1337.06     0  01:49     0.00166        4.55      -0.003
  WS02006252           JUNCTION      0.00   400.00     0  02:00           0        2.64      -0.030
  WS02006253           JUNCTION     17.60  1335.07     0  01:49      0.0259        1.91       0.052
  WS02006256           JUNCTION      0.00   300.00     0  01:50           0       0.757       0.058
  WS02006280           JUNCTION      0.00  2162.79     0  01:50           0        5.57      -0.001
  WS02006284           JUNCTION      0.10  2161.73     0  01:50     0.00207        5.57       0.036
  WS02006287           JUNCTION      0.00  2159.43     0  01:50           0        5.57       0.017
  WSF200               JUNCTION      0.00  1248.06     0  01:49           0        6.77       0.011
  YS02001580           JUNCTION      0.00   113.56     0  01:46           0     0.00402      -5.059
  YS02001583           JUNCTION      0.00   192.36     0  01:46           0       0.015      -4.810
  YS02001586           JUNCTION    312.80   313.26     0  01:50       0.821       0.833       0.189
  YS02001590           JUNCTION      0.00   312.94     0  01:50           0       0.819      -0.015
  YS02001593           JUNCTION      0.00   313.11     0  01:50           0       0.819       0.003
  YS02001596           JUNCTION      0.00   313.31     0  01:50           0       0.819      -0.026
  YS02001600           JUNCTION      0.00   313.52     0  01:50           0       0.819       0.012
  YS02001601           JUNCTION    622.83   934.48     0  01:50        1.19        2.01       0.058
  YS02001602           JUNCTION      0.00   577.29     0  01:46           0        1.62       0.043
  YS02001605           JUNCTION      0.00   576.96     0  01:46           0        1.59       0.050
  YS02001607           JUNCTION      0.00   577.23     0  01:46           0        1.59       0.157
  YS02001610           JUNCTION      0.00   553.00     0  01:46           0        1.58       0.170
  YS02001613           JUNCTION      0.00   540.18     0  01:46           0        1.56       0.145
  YS02001616           JUNCTION      0.00   540.01     0  01:46           0        1.55       0.055
  YS02001619           JUNCTION    547.87   937.74     0  01:47        1.29        2.85       0.015
  YS02001622           JUNCTION      0.00   936.83     0  01:47           0        2.84       0.017
  YS02001625           JUNCTION      0.00   941.79     0  01:47           0        2.84       0.347
  YS02001629           JUNCTION      0.00   943.44     0  01:47           0        2.83       0.017
  YS02001633           JUNCTION    455.57  1348.43     0  01:49       0.855        3.68       0.110
  YS02001641           JUNCTION      0.00  1345.41     0  01:49           0        3.68       0.084
  YS02001644           JUNCTION    410.16  1748.73     0  01:49       0.738        4.41       0.087
  YS02001647           JUNCTION      0.00  1747.88     0  01:49           0         4.4       0.014
  YS02001649           JUNCTION      0.00  2051.51     0  01:48           0        5.06       0.014
  YS02001652           JUNCTION      0.00   451.49     0  01:48           0       0.657      -0.432
  YS02001655           JUNCTION      0.15   518.48     0  01:55     0.00332       0.658       0.077
  YS02001658           JUNCTION      0.00   390.41     0  01:50           0       0.655       0.014
  YS02001661           JUNCTION      0.00   391.08     0  01:50           0       0.654       0.035
  YS02001664           JUNCTION    391.70   391.70     0  01:50       0.654       0.654      -0.000
  YS02001745           JUNCTION    264.64   264.64     0  01:50       0.411       0.411       0.281
  YS02001748           JUNCTION      0.04   264.09     0  01:50    0.000972       0.411      -0.356
  YS02001751           JUNCTION      0.01   290.99     0  01:52    0.000238       0.413       0.333
  YS02001754           JUNCTION      0.26   324.55     0  01:54     0.00562       0.417      -0.569
  YS02001757           JUNCTION      0.00  2811.42     0  01:52           0        6.93       0.096
  YS02001759           JUNCTION    361.67   885.98     0  01:51       0.563        1.45      -0.011
  YS02001762           JUNCTION      0.00   558.34     0  01:51           0       0.882       0.011
  YS02001765           JUNCTION      0.00   557.25     0  01:51           0       0.882       0.012
  YS02001767           JUNCTION      0.54   560.45     0  01:51      0.0116       0.883       0.019
  YS02001770           JUNCTION    520.62   558.42     0  01:51       0.872       0.919       0.019
  YS02001774           JUNCTION      0.00   136.94     0  01:48           0      0.0746       1.611
  YS02001779           JUNCTION      0.01   133.42     0  01:50    0.000108      0.0263      -1.138
  YS02001783           JUNCTION      0.00  1140.44     0  01:51           0        2.63       0.015
  YS02001784           JUNCTION      1.06  1141.46     0  01:51      0.0229        2.65       0.029
  YS02001786           JUNCTION      0.06  1141.44     0  01:52     0.00122        2.65      -0.008
  YS02001788           JUNCTION      0.07  1140.89     0  01:51     0.00153        2.65       0.013
  YS02001790           JUNCTION      0.15  1198.98     0  01:51     0.00335        2.65      -0.044
  YS02001791           JUNCTION      0.00  1355.69     0  01:51           0        2.65       0.006
  YS02001793           JUNCTION      0.00  1408.68     0  01:51           0        2.66      -0.058
  YS02001882           JUNCTION      0.00    57.44     0  01:47           0      0.0129       6.211
  YS02001884           JUNCTION      0.00    94.78     0  01:47           0      0.0491       5.782
  YS02001887           JUNCTION    395.92   408.04     0  01:48       0.601       0.635       0.727
  YS02001890           JUNCTION      0.00   416.89     0  01:48           0       0.593       0.904
  YS02001895           JUNCTION      0.00   424.22     0  01:48           0       0.588       0.323
  YS02001898           JUNCTION      0.00   429.88     0  01:48           0       0.586       0.073
  YS02001901           JUNCTION      0.00   436.90     0  01:48           0       0.589       0.589
  YS02001904           JUNCTION      0.00   438.32     0  01:48           0       0.599       0.519
  YS02001907           JUNCTION      0.00  1262.40     0  01:50           0        1.92       0.979
  YS02001910           JUNCTION      0.00   893.02     0  01:50           0        1.32       0.562
  YS02001915           JUNCTION    448.25   891.35     0  01:50       0.827        1.37       0.120
  YS02001918           JUNCTION      0.00   476.16     0  01:48           0       0.573       0.045
  YS02001920           JUNCTION      2.87   457.33     0  01:50       0.062       0.555       0.159
  YS02001923           JUNCTION      0.04   480.47     0  01:48    0.000814       0.477      -0.242
  YS02001926           JUNCTION      0.05   869.26     0  01:49     0.00113       0.455      -0.174
  YS02001929           JUNCTION    208.70   553.34     0  01:49       0.435        0.44      -0.233
  YS02006553           JUNCTION      0.00   780.92     0  01:58           0        1.81       0.675
  YS02006556           JUNCTION      0.00   780.97     0  01:58           0        1.82       0.469
  YS02006558           JUNCTION    527.62  1141.78     0  01:51       0.871        2.66       0.151
  YS02006561           JUNCTION      0.00  1140.55     0  01:51           0        2.63      -0.012
  YS02163301           JUNCTION      0.00   909.24     0  01:49           0        2.83       0.063
  YS02163601           JUNCTION      0.11  1348.05     0  01:49     0.00238        3.68       0.144
  YS02164001           JUNCTION      0.00  1347.34     0  01:49           0        3.67       0.073
  YSB1154              JUNCTION    215.16   215.16     0  01:50       0.361       0.362       0.421
  YSB1171              JUNCTION      0.00   402.26     0  01:50           0       0.641       1.026
  YSB1174              JUNCTION    183.88   183.88     0  01:50       0.273       0.273       0.486
  YSB6556              JUNCTION      0.00   215.68     0  01:50           0       0.362       0.361
  CC-1                 OUTFALL       0.00   683.00     0  02:00           0        2.87       0.000
  CC-2                 OUTFALL       0.00   683.00     0  02:10           0        2.46       0.000
  JK-1                 OUTFALL       0.00  1000.00     0  01:50           0        1.26       0.000
  JK-2                 OUTFALL       0.00  1000.00     0  01:50           0        1.26       0.000
  WSC                  OUTFALL       0.00  1457.46     0  01:55           0          11       0.000
  CC-storage           STORAGE       0.00  2811.17     0  01:52           0        9.15      -0.397
  JK-storage           STORAGE       0.00  1692.90     0  01:51           0        2.81     -22.090
  XR-storage           STORAGE     200.00   200.00     0  00:00        4.32        4.92       0.001
  
  
  **********************
  Node Surcharge Summary
  **********************
  
  Surcharging occurs when water rises above the top of the highest conduit.
  ---------------------------------------------------------------------
                                               Max. Height   Min. Depth
                                   Hours       Above Crown    Below Rim
  Node                 Type      Surcharged         Meters       Meters
  ---------------------------------------------------------------------
  HS02004478           JUNCTION        0.23          0.692        0.248
  HS02004479           JUNCTION        0.35          0.937        0.113
  HS02004480           JUNCTION        0.38          1.009        0.091
  HS02004770           JUNCTION        0.30          0.720        0.000
  HS02004777           JUNCTION        0.30          0.780        0.000
  HS02004785           JUNCTION        0.25          0.790        0.000
  HS02004788           JUNCTION        0.24          0.720        0.000
  HS02004792           JUNCTION        0.35          0.900        0.000
  HS02004799           JUNCTION        0.44          1.060        0.000
  HS02004802           JUNCTION        0.38          1.107        0.103
  HS02004807           JUNCTION        0.37          1.220        0.000
  HS02004817           JUNCTION        0.77          1.740        0.000
  HS02004824           JUNCTION        0.24          1.310        0.000
  HS02004830           JUNCTION        0.21          1.330        0.000
  HS02004837           JUNCTION        0.17          1.299        0.041
  HS02004842           JUNCTION        0.31          1.520        0.000
  HS02004848           JUNCTION        0.12          1.279        0.091
  HS02004852           JUNCTION        0.15          1.301        0.119
  HS02004856           JUNCTION        0.14          1.209        0.091
  HS02004862           JUNCTION        0.17          1.216        0.084
  HS02004870           JUNCTION        0.21          1.167        0.233
  HS02004876           JUNCTION        0.28          1.232        0.328
  HS02004881           JUNCTION        0.26          0.982        0.468
  HS02004901           JUNCTION        0.31          0.720        0.000
  WS02004401           JUNCTION        1.24          1.143        0.517
  WS02004402           JUNCTION        1.30          1.075        0.665
  WS02004403           JUNCTION        1.32          0.988        1.042
  WS02004404           JUNCTION        1.50          0.962        1.818
  WS02004405           JUNCTION        1.47          0.862        1.938
  WS02004406           JUNCTION        1.43          0.565        1.885
  WS02004409           JUNCTION        0.61          0.320        2.040
  WS02004410           JUNCTION        0.57          0.239        2.301
  WS02004411           JUNCTION        0.52          0.213        2.317
  WS02004412           JUNCTION        0.45          0.478        1.832
  WS02004413           JUNCTION        0.84          0.183        2.017
  WS02006109           JUNCTION        1.67          1.820        0.000
  WS02006110           JUNCTION        1.56          1.647        0.203
  WS02006111           JUNCTION        0.78          1.590        0.280
  WS02006112           JUNCTION        1.60          1.680        0.000
  WS02006113           JUNCTION        0.80          1.471        0.459
  WS02006115           JUNCTION        1.15          1.290        0.960
  WS02006116           JUNCTION        1.15          1.201        1.089
  WS02006228           JUNCTION        1.67          2.200        0.000
  WS02006229           JUNCTION        0.56          1.057        0.013
  WS02006230           JUNCTION        1.51          1.570        0.000
  WS02006231           JUNCTION        1.52          1.479        0.051
  WS02006232           JUNCTION        1.57          1.480        0.000
  WS02006234           JUNCTION        1.53          1.240        0.000
  WS02006235           JUNCTION        1.53          1.257        0.033
  WS02006238           JUNCTION        1.54          1.260        0.170
  WS02006239           JUNCTION        1.53          1.094        0.196
  WS02006240           JUNCTION        1.52          0.947        0.443
  WS02006242           JUNCTION        1.52          0.820        0.000
  WS02006243           JUNCTION        1.50          0.770        0.000
  WS02006245           JUNCTION        1.49          0.850        0.000
  WS02006247           JUNCTION        1.50          0.760        0.000
  WS02006248           JUNCTION        1.48          0.380        0.000
  WS02006249           JUNCTION        1.48          0.390        0.000
  WS02006251           JUNCTION        1.46          1.121        0.059
  WS02006252           JUNCTION        1.46          1.100        0.000
  WS02006253           JUNCTION        1.47          1.881        0.599
  WS02006256           JUNCTION        4.23          2.050        0.000
  WS02006280           JUNCTION        0.46          0.711        0.069
  WS02006284           JUNCTION        0.40          0.692        0.108
  WS02006287           JUNCTION        0.32          0.772        0.118
  YS02001580           JUNCTION        0.24          0.450        0.000
  YS02001583           JUNCTION        0.25          0.500        0.000
  YS02001586           JUNCTION        0.42          0.510        0.000
  YS02001590           JUNCTION        0.49          0.750        0.000
  YS02001593           JUNCTION        0.49          0.728        0.112
  YS02001596           JUNCTION        0.57          1.070        0.000
  YS02001600           JUNCTION        0.67          1.190        0.000
  YS02001601           JUNCTION        0.95          1.440        0.000
  YS02001602           JUNCTION        0.85          1.270        0.000
  YS02001605           JUNCTION        0.81          1.176        0.004
  YS02001607           JUNCTION        0.45          0.645        0.035
  YS02001610           JUNCTION        0.48          0.680        0.000
  YS02001613           JUNCTION        0.45          0.651        0.049
  YS02001616           JUNCTION        0.41          0.588        0.022
  YS02001619           JUNCTION        0.40          0.573        0.037
  YS02001622           JUNCTION        0.40          0.559        0.061
  YS02001625           JUNCTION        0.55          0.780        0.000
  YS02001629           JUNCTION        0.34          0.470        0.000
  YS02001633           JUNCTION        0.57          0.857        0.203
  YS02001641           JUNCTION        0.52          0.681        0.419
  YS02001644           JUNCTION        0.49          0.622        0.298
  YS02001647           JUNCTION        0.27          0.337        0.563
  YS02001649           JUNCTION        0.42          0.522        0.528
  YS02001652           JUNCTION        0.15          0.596        0.534
  YS02001757           JUNCTION        0.46          0.378        0.832
  YS02001759           JUNCTION        0.36          0.295        0.915
  YS02001762           JUNCTION        0.33          0.301        0.849
  YS02001765           JUNCTION        0.25          0.305        0.795
  YS02001767           JUNCTION        0.21          0.338        0.692
  YS02001770           JUNCTION        0.18          0.392        0.528
  YS02001774           JUNCTION        0.30          0.538        0.512
  YS02001779           JUNCTION        0.01          0.345        0.335
  YS02001783           JUNCTION        0.38          0.843        0.757
  YS02001784           JUNCTION        0.35          0.935        0.555
  YS02001786           JUNCTION        0.26          0.863        0.567
  YS02001788           JUNCTION        0.10          0.996        0.484
  YS02001790           JUNCTION        0.13          1.157        0.000
  YS02001791           JUNCTION        0.13          1.023        0.897
  YS02001793           JUNCTION        0.21          1.038        1.562
  YS02001882           JUNCTION        0.25          0.619        0.211
  YS02001884           JUNCTION        0.26          0.657        0.213
  YS02001887           JUNCTION        0.29          0.743        0.207
  YS02001890           JUNCTION        0.31          0.760        0.000
  YS02001895           JUNCTION        0.24          0.559        0.191
  YS02001898           JUNCTION        0.24          0.527        0.213
  YS02001901           JUNCTION        0.28          0.669        0.201
  YS02001904           JUNCTION        0.27          0.633        0.217
  YS02001907           JUNCTION        0.48          0.950        0.000
  YS02001910           JUNCTION        0.34          0.972        0.128
  YS02001915           JUNCTION        0.25          0.919        0.081
  YS02001918           JUNCTION        0.17          0.810        0.000
  YS02001920           JUNCTION        0.18          1.095        0.045
  YS02001923           JUNCTION        0.01          0.820        0.000
  YS02001926           JUNCTION        0.01          0.900        0.000
  YS02001929           JUNCTION        0.01          0.780        0.000
  YS02006553           JUNCTION        0.49          0.967        0.223
  YS02006556           JUNCTION        0.42          0.886        0.464
  YS02006558           JUNCTION        0.42          0.873        0.527
  YS02006561           JUNCTION        0.14          0.664        0.486
  YS02163301           JUNCTION        0.56          0.908        0.122
  YS02163601           JUNCTION        0.59          0.824        0.256
  YS02164001           JUNCTION        0.53          0.708        0.392
  YSB1154              JUNCTION        0.52          1.184        0.216
  YSB1171              JUNCTION        0.52          1.100        0.000
  YSB1174              JUNCTION        0.47          1.092        0.158
  YSB6556              JUNCTION        0.42          1.043        0.057
  
  
  *********************
  Node Flooding Summary
  *********************
  
  Flooding refers to all water that overflows a node, whether it ponds or not.
  --------------------------------------------------------------------------
                                                             Total   Maximum
                                 Maximum   Time of Max       Flood    Ponded
                        Hours       Rate    Occurrence      Volume     Depth
  Node                 Flooded       LPS   days hr:min    10^6 ltr    Meters
  --------------------------------------------------------------------------
  HS02004770              0.10    181.65      0  01:49       0.047     0.000
  HS02004777              0.01     11.58      0  01:46       0.000     0.000
  HS02004785              0.01    104.89      0  01:45       0.000     0.000
  HS02004788              0.01    374.56      0  01:46       0.002     0.000
  HS02004792              0.09    253.67      0  01:50       0.030     0.000
  HS02004799              0.01     61.82      0  01:49       0.001     0.000
  HS02004807              0.01     26.11      0  01:49       0.000     0.000
  HS02004817              0.01     10.01      0  01:49       0.000     0.000
  HS02004824              0.01     21.79      0  01:49       0.000     0.000
  HS02004830              0.01     24.14      0  01:49       0.000     0.000
  HS02004842              0.01     83.27      0  01:49       0.001     0.000
  HS02004901              0.18    387.90      0  01:52       0.161     0.000
  WS02006109              0.16    123.29      0  01:50       0.035     0.000
  WS02006112              0.01   1153.65      0  00:00       0.035     0.000
  WS02006228              0.01      1.77      0  01:49       0.000     0.000
  WS02006230              0.41    505.66      0  01:50       0.417     0.000
  WS02006232              0.10      1.21      0  01:43       0.000     0.000
  WS02006234              0.46    128.26      0  01:57       0.126     0.000
  WS02006242              0.55    152.37      0  01:40       0.233     0.000
  WS02006243              0.01     93.42      0  01:41       0.000     0.000
  WS02006245              0.01     56.50      0  01:41       0.000     0.000
  WS02006247              0.01    141.01      0  01:41       0.000     0.000
  WS02006248              0.67    348.25      0  01:47       0.728     0.000
  WS02006249              1.46   1265.31      0  01:49       2.687     0.000
  WS02006252              0.05    206.59      0  01:49       0.011     0.000
  WS02006256              0.66    292.14      0  02:10       0.303     0.000
  YS02001580              0.01     76.47      0  01:46       0.000     0.000
  YS02001583              0.01     49.53      0  01:47       0.000     0.000
  YS02001586              0.01     90.59      0  01:47       0.001     0.000
  YS02001590              0.01      4.32      0  01:46       0.000     0.000
  YS02001596              0.01     12.13      0  01:44       0.000     0.000
  YS02001600              0.01      7.04      0  01:44       0.000     0.000
  YS02001601              0.35    536.40      0  01:50       0.388     0.000
  YS02001602              0.23     61.87      0  01:55       0.037     0.000
  YS02001610              0.14     82.92      0  01:55       0.027     0.000
  YS02001625              0.10     71.91      0  01:47       0.010     0.000
  YS02001629              0.01    219.24      0  01:47       0.001     0.000
  YS02001790              0.01    207.84      0  02:06       0.000     0.000
  YS02001890              0.01      2.03      0  01:49       0.000     0.000
  YS02001907              0.11    769.72      0  01:50       0.096     0.000
  YS02001918              0.01     77.53      0  01:50       0.001     0.000
  YS02001923              0.01     66.97      0  01:50       0.000     0.000
  YS02001926              0.01    503.19      0  01:49       0.001     0.000
  YS02001929              0.01    258.29      0  01:50       0.001     0.000
  YSB1171                 0.01     89.70      0  01:49       0.002     0.000
  JK-storage              0.10    964.79      0  01:50       0.270     0.000
  
  
  **********************
  Storage Volume Summary
  **********************
  
  --------------------------------------------------------------------------------------------------
                         Average     Avg  Evap Exfil       Maximum     Max    Time of Max    Maximum
                          Volume    Pcnt  Pcnt  Pcnt        Volume    Pcnt     Occurrence    Outflow
  Storage Unit           1000 m3    Full  Loss  Loss       1000 m3    Full    days hr:min        LPS
  --------------------------------------------------------------------------------------------------
  CC-storage               1.992      31     0     0         4.278      67       0  02:10    1766.00
  JK-storage               0.125      43     0     0         0.291     100       0  01:48    2300.00
  XR-storage               0.904      63     0     0         1.039      72       0  06:00     190.00
  
  
  ***********************
  Outfall Loading Summary
  ***********************
  
  -----------------------------------------------------------
                         Flow       Avg       Max       Total
                         Freq      Flow      Flow      Volume
  Outfall Node           Pcnt       LPS       LPS    10^6 ltr
  -----------------------------------------------------------
  CC-1                  21.93    683.00    683.00       2.871
  CC-2                  18.87    683.00    683.00       2.461
  JK-1                  10.05    738.83   1000.00       1.260
  JK-2                  10.05    738.83   1000.00       1.260
  WSC                   99.99    567.91   1457.46      11.014
  -----------------------------------------------------------
  System                32.18   3411.57   1457.46      18.867
  
  
  ********************
  Link Flow Summary
  ********************
  
  -----------------------------------------------------------------------------
                                 Maximum  Time of Max   Maximum    Max/    Max/
                                  |Flow|   Occurrence   |Veloc|    Full    Full
  Link                 Type          LPS  days hr:min     m/sec    Flow   Depth
  -----------------------------------------------------------------------------
  1                    CONDUIT   1457.46     0  01:55      3.67    0.51    0.50
  HS02004478WS02006287 CONDUIT   2159.43     0  01:50      2.62    0.60    1.00
  HS02004479HS02004480 CONDUIT    407.53     0  01:50      0.58    0.39    1.00
  HS02004480HS02004478 CONDUIT   2107.68     0  01:46      3.01    8.88    1.00
  HS02004770HS02004777 CONDUIT    759.46     0  01:46      1.08    1.39    1.00
  HS02004777HS02004785 CONDUIT    757.55     0  01:46      1.14    0.93    1.00
  HS02004785HS02004788 CONDUIT    727.55     0  01:46      1.36    5.49    1.00
  HS02004788HS02004792 CONDUIT    856.27     0  01:46      1.46    0.57    1.00
  HS02004792HS02004799 CONDUIT   1578.74     0  01:47      2.26    0.97    1.00
  HS02004799HS02004480 CONDUIT   1743.67     0  01:47      2.49    2.20    1.00
  HS02004802HS02004478 CONDUIT    357.69     0  02:08      0.69    0.32    1.00
  HS02004807HS02004802 CONDUIT    342.37     0  02:09      0.61    0.65    1.00
  HS02004817HS02004807 CONDUIT    466.40     0  01:46      0.67    0.28    1.00
  HS02004817HS02004824 CONDUIT    468.34     0  01:46      0.67    0.21    1.00
  HS02004824HS02004830 CONDUIT    676.74     0  01:46      1.01    0.89    1.00
  HS02004830HS02004837 CONDUIT    692.31     0  01:46      1.09    0.69    1.00
  HS02004837HS02004842 CONDUIT    834.68     0  01:47      1.19    0.50    1.00
  HS02004842HS02004848 CONDUIT    834.25     0  01:47      1.33    0.49    1.00
  HS02004848HS02004852 CONDUIT    992.75     0  01:49      1.59    1.12    1.00
  HS02004852HS02004856 CONDUIT    973.83     0  01:49      1.45    1.11    1.00
  HS02004856HS02004862 CONDUIT   1065.10     0  01:49      1.68    1.06    1.00
  HS02004862HS02004870 CONDUIT   1142.40     0  01:48      1.92    1.23    1.00
  HS02004870HS02004876 CONDUIT   1173.37     0  01:48      1.90    0.78    1.00
  HS02004876HS02004881 CONDUIT   1246.67     0  01:49      2.34   13.26    1.00
  HS02004881HS02006253 CONDUIT   1317.50     0  01:49      1.88    0.26    1.00
  HS02004901HS02004770 CONDUIT    237.84     0  01:52      0.34    0.89    1.00
  WS02001211WS02001212 CONDUIT    254.10     0  01:51      0.54    0.19    0.69
  WS02001212WS02001213 CONDUIT    242.41     0  01:51      1.04    0.37    0.57
  WS02001213WS02003059 CONDUIT    232.74     0  01:53      0.47    0.38    0.89
  WS02003059WS02003060 CONDUIT    248.18     0  01:52      0.67    0.16    0.80
  WS02003060WS02003069 CONDUIT   1465.00     0  01:53      2.08    0.57    0.60
  WS02003066WSF200     CONDUIT   1248.06     0  01:49      3.54    0.21    0.37
  WS02003067WS02003066 CONDUIT   1249.51     0  01:49      1.99    0.40    0.56
  WS02003069WS02003072 CONDUIT   1460.19     0  01:54      1.88    0.70    0.65
  WS02003072WS02003073 CONDUIT   1457.41     0  01:54      2.03    3.15    0.61
  WS02004138WS02004139 CONDUIT    191.01     0  00:29      2.14    0.04    0.42
  WS02004139WS02001211 CONDUIT    273.41     0  01:49      0.53    0.35    0.60
  WS02004401WS02004402 CONDUIT   1241.54     0  01:49      2.07    1.49    1.00
  WS02004402WS02004403 CONDUIT   1241.80     0  01:50      1.84    1.78    1.00
  WS02004403WS02004404 CONDUIT   1242.32     0  01:50      1.66    0.90    1.00
  WS02004404WS02004405 CONDUIT   1242.32     0  01:50      1.85   12.17    1.00
  WS02004405WS02004406 CONDUIT   1242.12     0  01:50      1.73    2.45    1.00
  WS02004406WS02004407 CONDUIT   1241.86     0  01:50      1.97    0.55    0.91
  WS02004407WS02004409 CONDUIT   1240.99     0  01:50      1.99    0.44    0.91
  WS02004409WS02004410 CONDUIT   1240.99     0  01:50      1.58    1.60    1.00
  WS02004410WS02004411 CONDUIT   1240.83     0  01:50      1.58    1.69    1.00
  WS02004411WS02004412 CONDUIT   1240.90     0  01:50      1.58    1.76    1.00
  WS02004412WS02004413 CONDUIT   1240.79     0  01:50      1.58    0.83    1.00
  WS02004413WS02003067 CONDUIT   1240.85     0  01:50      1.94    0.53    0.76
  WS02006109WS02006110 CONDUIT   1306.78     0  00:00      3.15    2.51    1.00
  WS02006110WS02006113 CONDUIT   1119.34     0  01:56      2.23    1.02    1.00
  WS02006111WS02006112 CONDUIT   2307.30     0  00:00      9.18    1.10    1.00
  WS02006112WS02006115 CONDUIT   2152.75     0  00:00      2.85    1.27    1.00
  WS02006113WS02006111 CONDUIT   1176.04     0  00:00      2.66    1.41    1.00
  WS02006115WS02006116 CONDUIT   1241.40     0  01:50      1.81    1.59    1.00
  WS02006116WS02004401 CONDUIT   1241.67     0  01:50      2.21    1.71    1.00
  WS02006228WS02006109 CONDUIT   1218.75     0  01:50      2.42    5.32    1.00
  WS02006229WS02006228 CONDUIT   1218.71     0  01:50      2.42    4.04    1.00
  WS02006230WS02006229 CONDUIT    948.79     0  01:50      2.47   21.11    1.00
  WS02006231WS02006230 CONDUIT    453.32     0  01:50      1.30    6.88    1.00
  WS02006232WS02006231 CONDUIT    453.54     0  01:50      1.18    0.95    1.00
  WS02006234WS02006232 CONDUIT    453.14     0  01:50      1.18    0.92    1.00
  WS02006235WS02006234 CONDUIT    416.67     0  02:00      1.08    4.40    1.00
  WS02006238WS02006235 CONDUIT    415.90     0  01:51      1.22    0.93    1.00
  WS02006239WS02006238 CONDUIT    415.50     0  01:51      1.08    1.33    1.00
  WS02006240WS02006239 CONDUIT    415.01     0  01:51      1.09    1.31    1.00
  WS02006242WS02006240 CONDUIT    415.29     0  01:51      1.08    1.65    1.00
  WS02006243WS02006242 CONDUIT    400.04     0  03:10      1.13    0.85    1.00
  WS02006245WS02006243 CONDUIT    400.08     0  03:10      1.13    1.18    1.00
  WS02006247WS02006245 CONDUIT    400.14     0  03:10      1.07    3.17    1.00
  WS02006248WS02006247 CONDUIT    400.15     0  03:10      1.12    0.87    1.00
  WS02006249WS02006248 CONDUIT    400.13     0  03:10      1.13    2.19    1.00
  WS02006251WS02006249 CONDUIT   1331.59     0  01:49      3.46    3.84    1.00
  WS02006252WS02006251 CONDUIT    407.80     0  02:10      3.25    1.50    1.00
  WS02006253WS02006251 CONDUIT   1336.98     0  01:49      3.47    4.01    1.00
  WS02006256WS02006235 CONDUIT    286.14     0  03:50      4.12    3.03    1.00
  WS02006280WS02006229 CONDUIT   2165.10     0  01:50      4.25    0.46    1.00
  WS02006284WS02006280 CONDUIT   2162.79     0  01:50      2.96    0.91    1.00
  WS02006287WS02006284 CONDUIT   2161.63     0  01:50      2.77    1.00    1.00
  WSF200WS02003060     CONDUIT   1266.77     0  01:49      2.66    0.28    0.49
  YS02001580YS02001583 CONDUIT    113.56     0  01:46      0.75    0.44    1.00
  YS02001583YS02001586 CONDUIT    163.98     0  01:46      0.78    0.25    1.00
  YS02001586YS02001590 CONDUIT    312.94     0  01:50      1.30    0.55    1.00
  YS02001590YS02001593 CONDUIT    313.11     0  01:50      1.11    1.97    1.00
  YS02001593YS02001596 CONDUIT    313.31     0  01:50      1.69    0.49    1.00
  YS02001596YS02001600 CONDUIT    313.52     0  01:50      1.19    0.61    1.00
  YS02001600YS02001601 CONDUIT    313.54     0  01:50      1.11    0.54    1.00
  YS02001601YS02001602 CONDUIT    577.29     0  01:46      2.04    2.09    1.00
  YS02001602YS02001605 CONDUIT    576.96     0  01:46      2.04   12.21    1.00
  YS02001605YS02001607 CONDUIT    577.23     0  01:46      2.04    3.17    1.00
  YS02001607YS02001610 CONDUIT    553.00     0  01:46      0.75    0.53    1.00
  YS02001610YS02001613 CONDUIT    540.18     0  01:46      0.71    0.62    1.00
  YS02001613YS02001616 CONDUIT    540.01     0  01:46      0.72    0.46    1.00
  YS02001616YS02001619 CONDUIT    502.03     0  01:47      0.71    0.87    1.00
  YS02001619YS02001622 CONDUIT    936.83     0  01:47      1.38    1.38    1.00
  YS02001622YS02001625 CONDUIT    941.79     0  01:47      1.20    0.50    1.00
  YS02001625YS02001629 CONDUIT    943.44     0  01:47      1.20    0.45    1.00
  YS02001629YS02163301 CONDUIT    909.24     0  01:49      1.16    1.12    1.00
  YS02001633YS02163601 CONDUIT   1347.94     0  01:49      1.72    1.42    1.00
  YS02001641YS02001644 CONDUIT   1345.77     0  01:49      1.71    4.35    1.00
  YS02001644YS02001647 CONDUIT   1747.88     0  01:49      2.26    1.03    1.00
  YS02001647YS02001649 CONDUIT   1744.40     0  01:49      2.35    0.92    1.00
  YS02001649YS02001757 CONDUIT   2042.53     0  01:49      2.62    1.24    1.00
  YS02001652YS02001649 CONDUIT    431.16     0  01:52      0.93    0.21    1.00
  YS02001655YS02001652 CONDUIT    451.49     0  01:48      1.74    0.22    1.00
  YS02001658YS02001655 CONDUIT    518.33     0  01:55      2.01    0.22    0.76
  YS02001661YS02001658 CONDUIT    390.41     0  01:50      2.27    0.15    0.43
  YS02001664YS02001661 CONDUIT    391.08     0  01:50      2.11    0.12    0.29
  YS02001745YS02001748 CONDUIT    264.05     0  01:50      2.13    0.10    0.32
  YS02001748YS02001751 CONDUIT    290.98     0  01:52      1.76    0.15    0.62
  YS02001751YS02001754 CONDUIT    324.29     0  01:54      1.66    0.16    0.83
  YS02001754YS02001757 CONDUIT    300.27     0  01:52      0.72    0.12    1.00
  YS02001757CaochengTiaoxuchi CONDUIT   2811.17     0  01:52      3.60    1.22    1.00
  YS02001759YS02001757 CONDUIT    889.25     0  01:51      1.16    0.63    1.00
  YS02001762YS02001759 CONDUIT    563.51     0  01:51      0.72    0.65    1.00
  YS02001765YS02001762 CONDUIT    558.34     0  01:51      0.75    0.52    1.00
  YS02001767YS02001765 CONDUIT    557.25     0  01:51      0.91    0.70    1.00
  YS02001770YS02001767 CONDUIT    559.91     0  01:51      0.92    2.22    1.00
  YS02001774YS02001770 CONDUIT    136.94     0  01:48      0.23    0.09    1.00
  YS02001779YS02001774 CONDUIT    133.42     0  01:50      0.17    0.07    1.00
  YS02001783YS02001784 CONDUIT   1140.40     0  01:51      2.27    1.57    1.00
  YS02001784YS02001785 CONDUIT   1141.39     0  01:52      2.27    2.66    1.00
  YS02001786YS02001788 CONDUIT   1140.81     0  01:51      2.45    2.20    1.00
  YS02001788YS02001790 CONDUIT   1198.82     0  01:51      2.70    0.88    1.00
  YS02001790YS02001791 CONDUIT   1355.69     0  01:51      3.43    1.48    1.00
  YS02001791YS02001793 CONDUIT   1408.68     0  01:51      6.69    0.60    1.00
  YS02001793JiankangQianchi CONDUIT   1692.90     0  01:51     24.36    0.13    1.00
  YS02001882YS02001884 CONDUIT     57.44     0  01:47      0.11    0.07    1.00
  YS02001884YS02001887 CONDUIT     94.78     0  01:47      0.15    0.13    1.00
  YS02001887YS02001890 CONDUIT    416.89     0  01:48      0.53    0.71    1.00
  YS02001890YS02001895 CONDUIT    424.22     0  01:48      0.54    0.20    1.00
  YS02001895YS02001898 CONDUIT    429.88     0  01:48      0.55    0.75    1.00
  YS02001898YS02001901 CONDUIT    436.90     0  01:48      0.56    0.28    1.00
  YS02001901YS02001904 CONDUIT    438.32     0  01:48      0.56    0.68    1.00
  YS02001904YS02001907 CONDUIT    438.78     0  01:48      0.56    0.15    1.00
  YS02001907YS02006553 CONDUIT    780.92     0  01:58      0.87    0.92    1.00
  YS02001910YS02001907 CONDUIT    893.54     0  01:50      1.14    0.50    1.00
  YS02001915YS02001910 CONDUIT    893.02     0  01:50      1.14    0.44    1.00
  YS02001918YS02001915 CONDUIT    476.16     0  01:48      0.62    0.26    1.00
  YS02001920YS02001918 CONDUIT    456.81     0  01:50      0.69    0.44    1.00
  YS02001923YS02001920 CONDUIT    454.46     0  01:50      0.82    0.20    1.00
  YS02001926YS02001923 CONDUIT    497.04     0  01:49      0.95    0.71    1.00
  YS02001929YS02001926 CONDUIT    471.52     0  01:49      1.09    0.22    1.00
  YS02006553YS02006556 CONDUIT    780.97     0  01:58      0.99    0.67    1.00
  YS02006556YS02006558 CONDUIT    781.30     0  01:58      0.99    0.62    1.00
  YS02006558YS02006561 CONDUIT   1140.55     0  01:51      4.03    2.52    1.00
  YS02006561YS02001783 CONDUIT   1140.44     0  01:51      2.27    0.59    1.00
  YS02163301YS02001633 CONDUIT    908.79     0  01:48      1.16    0.85    1.00
  YS02163601YS02164001 CONDUIT   1347.34     0  01:49      1.72    1.19    1.00
  YS02164001YS02001641 CONDUIT   1345.41     0  01:49      1.71    1.84    1.00
  YSB1154YSB6556       CONDUIT    215.68     0  01:50      0.56    0.39    1.00
  YSB1171HS02004479    CONDUIT    404.39     0  01:50      0.80    0.27    1.00
  YSB1174YSB1171       CONDUIT    184.21     0  01:50      0.48    0.28    1.00
  YSB6556YSB1171       CONDUIT    218.05     0  01:50      0.57    0.22    1.00
  CC-R1                PUMP       683.00     0  02:00              1.00
  CC-R2                PUMP       683.00     0  02:10              1.00
  CC-S1                PUMP       200.00     0  00:40              1.00
  CC-S2                PUMP       200.00     0  02:00              1.00
  JK-R1                PUMP      1000.00     0  01:50              1.00
  JK-R2                PUMP      1000.00     0  01:50              1.00
  JK-S                 PUMP       300.00     0  01:50              1.00
  XR-1                 PUMP        95.00     0  00:10              1.00
  XR-2                 PUMP        95.00     0  00:29              1.00
  XR-3                 PUMP         0.00     0  00:00              0.00
  XR-4                 PUMP         0.00     0  00:00              0.00
  
  
  ***************************
  Flow Classification Summary
  ***************************
  
  -------------------------------------------------------------------------------------
                      Adjusted    ---------- Fraction of Time in Flow Class ---------- 
                       /Actual         Up    Down  Sub   Sup   Up    Down  Norm  Inlet 
  Conduit               Length    Dry  Dry   Dry   Crit  Crit  Crit  Crit  Ltd   Ctrl  
  -------------------------------------------------------------------------------------
  1                       1.00   0.00  0.00  0.00  0.00  1.00  0.00  0.00  0.48  0.00
  HS02004478WS02006287    1.00   0.34  0.00  0.00  0.38  0.28  0.00  0.00  0.50  0.00
  HS02004479HS02004480    1.00   0.01  0.00  0.00  0.99  0.00  0.00  0.00  0.17  0.00
  HS02004480HS02004478    1.00   0.20  0.00  0.00  0.28  0.00  0.00  0.52  0.00  0.00
  HS02004770HS02004777    1.00   0.00  0.18  0.00  0.82  0.00  0.00  0.00  0.05  0.00
  HS02004777HS02004785    1.00   0.00  0.00  0.00  1.00  0.00  0.00  0.00  0.18  0.00
  HS02004785HS02004788    1.00   0.00  0.00  0.00  1.00  0.00  0.00  0.00  0.00  0.00
  HS02004788HS02004792    1.00   0.00  0.00  0.00  1.00  0.00  0.00  0.00  0.91  0.00
  HS02004792HS02004799    1.00   0.00  0.00  0.00  1.00  0.00  0.00  0.00  0.88  0.00
  HS02004799HS02004480    1.00   0.00  0.01  0.00  0.67  0.00  0.32  0.00  0.00  0.00
  HS02004802HS02004478    1.00   0.20  0.03  0.00  0.77  0.00  0.00  0.00  0.03  0.00
  HS02004807HS02004802    1.00   0.18  0.00  0.00  0.75  0.00  0.00  0.07  0.01  0.00
  HS02004817HS02004807    1.00   0.00  0.18  0.00  0.82  0.00  0.00  0.00  0.01  0.00
  HS02004817HS02004824    1.00   0.00  0.00  0.00  1.00  0.00  0.00  0.00  0.84  0.00
  HS02004824HS02004830    1.00   0.00  0.00  0.00  1.00  0.00  0.00  0.00  0.01  0.00
  HS02004830HS02004837    1.00   0.00  0.00  0.00  1.00  0.00  0.00  0.00  0.89  0.00
  HS02004837HS02004842    1.00   0.00  0.00  0.00  1.00  0.00  0.00  0.00  0.14  0.00
  HS02004842HS02004848    1.00   0.00  0.18  0.00  0.82  0.00  0.00  0.00  0.48  0.00
  HS02004848HS02004852    1.00   0.18  0.00  0.00  0.82  0.00  0.00  0.00  0.64  0.00
  HS02004852HS02004856    1.00   0.17  0.06  0.00  0.77  0.00  0.00  0.00  0.64  0.00
  HS02004856HS02004862    1.00   0.00  0.38  0.00  0.62  0.00  0.00  0.00  0.68  0.00
  HS02004862HS02004870    1.00   0.00  0.00  0.00  1.00  0.00  0.00  0.00  0.06  0.00
  HS02004870HS02004876    1.00   0.00  0.00  0.00  1.00  0.00  0.00  0.00  0.86  0.00
  HS02004876HS02004881    1.00   0.00  0.00  0.00  0.81  0.19  0.00  0.00  0.00  0.00
  HS02004881HS02006253    1.00   0.02  0.00  0.00  0.73  0.00  0.00  0.25  0.36  0.00
  HS02004901HS02004770    1.00   0.17  0.00  0.00  0.82  0.00  0.00  0.00  0.01  0.00
  WS02001211WS02001212    1.00   0.00  0.01  0.00  0.99  0.00  0.00  0.00  0.00  0.00
  WS02001212WS02001213    1.00   0.01  0.00  0.00  0.36  0.00  0.63  0.00  0.00  0.00
  WS02001213WS02003059    1.00   0.00  0.00  0.00  1.00  0.00  0.00  0.00  0.00  0.00
  WS02003059WS02003060    1.00   0.00  0.00  0.00  1.00  0.00  0.00  0.00  0.04  0.00
  WS02003060WS02003069    1.00   0.00  0.00  0.00  0.99  0.01  0.00  0.00  0.36  0.00
  WS02003066WSF200        1.00   0.13  0.00  0.00  0.00  0.87  0.00  0.00  0.56  0.00
  WS02003067WS02003066    1.00   0.03  0.08  0.00  0.89  0.00  0.00  0.00  0.00  0.00
  WS02003069WS02003072    1.00   0.00  0.00  0.00  1.00  0.00  0.00  0.00  0.52  0.00
  WS02003072WS02003073    1.00   0.00  0.00  0.00  0.00  0.00  0.00  1.00  0.00  0.00
  WS02004138WS02004139    1.00   0.01  0.00  0.00  0.99  0.00  0.00  0.00  0.97  0.00
  WS02004139WS02001211    1.00   0.00  0.00  0.00  1.00  0.00  0.00  0.00  0.01  0.00
  WS02004401WS02004402    1.00   0.00  0.00  0.00  1.00  0.00  0.00  0.00  0.00  0.00
  WS02004402WS02004403    1.00   0.00  0.00  0.00  1.00  0.00  0.00  0.00  0.00  0.00
  WS02004403WS02004404    1.00   0.00  0.00  0.00  1.00  0.00  0.00  0.00  0.00  0.00
  WS02004404WS02004405    1.00   0.00  0.00  0.00  1.00  0.00  0.00  0.00  0.00  0.00
  WS02004405WS02004406    1.00   0.00  0.00  0.00  1.00  0.00  0.00  0.00  0.00  0.00
  WS02004406WS02004407    1.00   0.00  0.00  0.00  1.00  0.00  0.00  0.00  0.01  0.00
  WS02004407WS02004409    1.00   0.00  0.00  0.00  0.99  0.00  0.00  0.00  0.88  0.00
  WS02004409WS02004410    1.00   0.00  0.00  0.00  1.00  0.00  0.00  0.00  0.05  0.00
  WS02004410WS02004411    1.00   0.00  0.00  0.00  1.00  0.00  0.00  0.00  0.03  0.00
  WS02004411WS02004412    1.00   0.00  0.00  0.00  1.00  0.00  0.00  0.00  0.01  0.00
  WS02004412WS02004413    1.00   0.00  0.00  0.00  1.00  0.00  0.00  0.00  0.02  0.00
  WS02004413WS02003067    1.00   0.01  0.02  0.00  0.00  0.00  0.97  0.00  0.00  0.00
  WS02006109WS02006110    1.00   0.00  0.00  0.00  1.00  0.00  0.00  0.00  0.00  0.00
  WS02006110WS02006113    1.00   0.00  0.00  0.00  1.00  0.00  0.00  0.00  0.00  0.00
  WS02006111WS02006112    1.00   0.00  0.00  0.00  1.00  0.00  0.00  0.00  0.76  0.00
  WS02006112WS02006115    1.00   0.00  0.00  0.00  1.00  0.00  0.00  0.00  0.00  0.00
  WS02006113WS02006111    1.00   0.00  0.00  0.00  0.21  0.79  0.00  0.00  0.11  0.00
  WS02006115WS02006116    1.00   0.00  0.00  0.00  1.00  0.00  0.00  0.00  0.00  0.00
  WS02006116WS02004401    1.00   0.00  0.00  0.00  1.00  0.00  0.00  0.00  0.00  0.00
  WS02006228WS02006109    1.00   0.00  0.00  0.00  1.00  0.00  0.00  0.00  0.00  0.00
  WS02006229WS02006228    1.00   0.00  0.00  0.00  1.00  0.00  0.00  0.00  0.00  0.00
  WS02006230WS02006229    1.00   0.00  0.00  0.00  1.00  0.00  0.00  0.00  0.02  0.00
  WS02006231WS02006230    1.00   0.00  0.00  0.00  0.38  0.00  0.62  0.00  0.00  0.00
  WS02006232WS02006231    1.00   0.00  0.00  0.00  0.98  0.00  0.01  0.00  0.01  0.00
  WS02006234WS02006232    1.00   0.00  0.00  0.00  1.00  0.00  0.00  0.00  0.24  0.00
  WS02006235WS02006234    1.00   0.07  0.00  0.00  0.83  0.00  0.11  0.00  0.00  0.00
  WS02006238WS02006235    1.00   0.06  0.01  0.00  0.93  0.01  0.00  0.00  0.00  0.00
  WS02006239WS02006238    1.00   0.05  0.00  0.00  0.93  0.00  0.00  0.01  0.24  0.00
  WS02006240WS02006239    1.00   0.05  0.00  0.00  0.80  0.00  0.00  0.14  0.00  0.00
  WS02006242WS02006240    1.00   0.02  0.03  0.00  0.93  0.00  0.02  0.00  0.00  0.00
  WS02006243WS02006242    1.00   0.01  0.00  0.00  0.94  0.00  0.00  0.05  0.39  0.00
  WS02006245WS02006243    1.00   0.01  0.00  0.00  0.88  0.00  0.00  0.11  0.00  0.00
  WS02006247WS02006245    1.00   0.01  0.00  0.00  0.95  0.00  0.00  0.04  0.00  0.00
  WS02006248WS02006247    1.00   0.01  0.00  0.00  0.96  0.00  0.00  0.03  0.42  0.00
  WS02006249WS02006248    1.00   0.00  0.01  0.00  0.76  0.00  0.24  0.00  0.00  0.00
  WS02006251WS02006249    1.00   0.00  0.00  0.00  1.00  0.00  0.00  0.00  0.54  0.00
  WS02006252WS02006251    1.00   0.03  0.24  0.00  0.28  0.00  0.45  0.00  0.00  0.00
  WS02006253WS02006251    1.00   0.01  0.01  0.00  0.97  0.00  0.00  0.00  0.00  0.00
  WS02006256WS02006235    1.00   0.07  0.00  0.00  0.93  0.01  0.00  0.00  0.00  0.00
  WS02006280WS02006229    1.00   0.22  0.00  0.00  0.14  0.07  0.00  0.57  0.04  0.00
  WS02006284WS02006280    1.00   0.22  0.00  0.00  0.10  0.01  0.00  0.67  0.00  0.00
  WS02006287WS02006284    1.00   0.10  0.24  0.00  0.26  0.40  0.00  0.00  0.58  0.00
  WSF200WS02003060        1.00   0.00  0.13  0.00  0.55  0.32  0.00  0.00  0.52  0.00
  YS02001580YS02001583    1.00   0.48  0.29  0.00  0.22  0.00  0.00  0.00  0.63  0.00
  YS02001583YS02001586    1.00   0.28  0.41  0.00  0.31  0.00  0.00  0.00  0.63  0.00
  YS02001586YS02001590    1.00   0.17  0.00  0.00  0.51  0.07  0.00  0.24  0.43  0.00
  YS02001590YS02001593    1.00   0.18  0.04  0.00  0.12  0.00  0.66  0.00  0.00  0.00
  YS02001593YS02001596    1.00   0.22  0.00  0.00  0.13  0.01  0.00  0.64  0.02  0.00
  YS02001596YS02001600    1.00   0.23  0.00  0.00  0.22  0.03  0.00  0.53  0.07  0.00
  YS02001600YS02001601    1.00   0.20  0.03  0.00  0.77  0.00  0.00  0.00  0.53  0.00
  YS02001601YS02001602    1.00   0.17  0.06  0.00  0.77  0.00  0.00  0.00  0.00  0.00
  YS02001602YS02001605    1.00   0.23  0.00  0.00  0.77  0.00  0.00  0.00  0.00  0.00
  YS02001605YS02001607    1.00   0.24  0.00  0.00  0.76  0.00  0.00  0.00  0.00  0.00
  YS02001607YS02001610    1.00   0.20  0.04  0.00  0.75  0.00  0.00  0.00  0.03  0.00
  YS02001610YS02001613    1.00   0.19  0.00  0.00  0.81  0.00  0.00  0.00  0.02  0.00
  YS02001613YS02001616    1.00   0.18  0.00  0.00  0.82  0.00  0.00  0.00  0.01  0.00
  YS02001616YS02001619    1.00   0.17  0.00  0.00  0.83  0.00  0.00  0.00  0.00  0.00
  YS02001619YS02001622    1.00   0.17  0.00  0.00  0.83  0.00  0.00  0.00  0.09  0.00
  YS02001622YS02001625    1.00   0.18  0.00  0.00  0.82  0.00  0.00  0.00  0.09  0.00
  YS02001625YS02001629    1.00   0.19  0.22  0.00  0.16  0.00  0.43  0.00  0.00  0.00
  YS02001629YS02163301    1.00   0.33  0.04  0.00  0.63  0.00  0.00  0.00  0.00  0.00
  YS02001633YS02163601    1.00   0.00  0.00  0.00  1.00  0.00  0.00  0.00  0.21  0.00
  YS02001641YS02001644    1.00   0.00  0.00  0.00  1.00  0.00  0.00  0.00  0.00  0.00
  YS02001644YS02001647    1.00   0.00  0.40  0.00  0.60  0.00  0.00  0.00  0.00  0.00
  YS02001647YS02001649    1.00   0.00  0.40  0.00  0.32  0.29  0.00  0.00  0.47  0.00
  YS02001649YS02001757    1.00   0.00  0.00  0.00  0.70  0.30  0.00  0.00  0.54  0.00
  YS02001652YS02001649    1.00   0.00  0.00  0.00  0.85  0.15  0.00  0.00  0.71  0.00
  YS02001655YS02001652    1.00   0.00  0.00  0.00  0.17  0.02  0.00  0.81  0.06  0.00
  YS02001658YS02001655    1.00   0.00  0.26  0.00  0.33  0.41  0.00  0.00  0.65  0.00
  YS02001661YS02001658    1.00   0.26  0.00  0.00  0.18  0.56  0.00  0.00  0.68  0.00
  YS02001664YS02001661    1.00   0.17  0.00  0.00  0.64  0.19  0.00  0.00  0.83  0.00
  YS02001745YS02001748    1.00   0.00  0.00  0.00  0.08  0.02  0.00  0.90  0.08  0.00
  YS02001748YS02001751    1.00   0.00  0.00  0.00  0.64  0.36  0.00  0.00  0.74  0.00
  YS02001751YS02001754    1.00   0.00  0.00  0.00  0.15  0.00  0.00  0.84  0.03  0.00
  YS02001754YS02001757    1.00   0.00  0.00  0.00  1.00  0.00  0.00  0.00  0.85  0.00
  YS02001757CaochengTiaoxuchi    1.00   0.00  0.00  0.00  0.95  0.05  0.00  0.00  0.73  0.00
  YS02001759YS02001757    1.00   0.00  0.00  0.00  1.00  0.00  0.00  0.00  0.62  0.00
  YS02001762YS02001759    1.00   0.00  0.00  0.00  1.00  0.00  0.00  0.00  0.07  0.00
  YS02001765YS02001762    1.00   0.00  0.00  0.00  1.00  0.00  0.00  0.00  0.72  0.00
  YS02001767YS02001765    1.00   0.00  0.00  0.00  1.00  0.00  0.00  0.00  0.00  0.00
  YS02001770YS02001767    1.00   0.00  0.00  0.00  1.00  0.00  0.00  0.00  0.00  0.00
  YS02001774YS02001770    1.00   0.00  0.23  0.00  0.77  0.00  0.00  0.00  0.06  0.00
  YS02001779YS02001774    1.00   0.00  0.00  0.00  1.00  0.00  0.00  0.00  0.80  0.00
  YS02001783YS02001784    1.00   0.00  0.42  0.00  0.58  0.00  0.00  0.00  0.44  0.00
  YS02001784YS02001785    1.00   0.00  0.00  0.00  1.00  0.00  0.00  0.00  0.25  0.00
  YS02001786YS02001788    1.00   0.00  0.00  0.00  0.71  0.29  0.00  0.00  0.00  0.00
  YS02001788YS02001790    1.00   0.00  0.00  0.00  0.49  0.51  0.00  0.00  0.83  0.00
  YS02001790YS02001791    1.00   0.00  0.00  0.00  0.04  0.96  0.00  0.00  0.18  0.00
  YS02001791YS02001793    1.00   0.00  0.00  0.00  0.05  0.95  0.00  0.00  0.03  0.00
  YS02001793JiankangQianchi    1.00   0.00  0.00  0.00  0.89  0.11  0.00  0.00  0.85  0.00
  YS02001882YS02001884    1.00   0.31  0.04  0.00  0.65  0.00  0.00  0.00  0.00  0.00
  YS02001884YS02001887    1.00   0.02  0.11  0.00  0.87  0.00  0.00  0.00  0.00  0.00
  YS02001887YS02001890    1.00   0.00  0.00  0.00  0.99  0.00  0.01  0.00  0.00  0.00
  YS02001890YS02001895    1.00   0.00  0.37  0.00  0.63  0.00  0.00  0.00  0.00  0.00
  YS02001895YS02001898    1.00   0.37  0.01  0.00  0.57  0.00  0.05  0.00  0.00  0.00
  YS02001898YS02001901    1.00   0.37  0.01  0.00  0.62  0.00  0.00  0.00  0.01  0.00
  YS02001901YS02001904    1.00   0.37  0.00  0.00  0.63  0.00  0.00  0.00  0.00  0.00
  YS02001904YS02001907    1.00   0.00  0.37  0.00  0.63  0.00  0.00  0.00  0.00  0.00
  YS02001907YS02006553    1.00   0.00  0.01  0.00  0.99  0.00  0.00  0.00  0.00  0.00
  YS02001910YS02001907    1.00   0.00  0.00  0.00  0.99  0.00  0.00  0.01  0.17  0.00
  YS02001915YS02001910    1.00   0.00  0.00  0.00  0.92  0.08  0.00  0.00  0.24  0.00
  YS02001918YS02001915    1.00   0.00  0.00  0.00  1.00  0.00  0.00  0.00  0.72  0.00
  YS02001920YS02001918    1.00   0.00  0.00  0.00  1.00  0.00  0.00  0.00  0.01  0.00
  YS02001923YS02001920    1.00   0.00  0.00  0.00  1.00  0.00  0.00  0.00  0.93  0.00
  YS02001926YS02001923    1.00   0.00  0.03  0.00  0.05  0.00  0.92  0.00  0.00  0.00
  YS02001929YS02001926    1.00   0.00  0.17  0.00  0.83  0.00  0.00  0.00  0.80  0.00
  YS02006553YS02006556    1.00   0.00  0.00  0.00  1.00  0.00  0.00  0.00  0.04  0.00
  YS02006556YS02006558    1.00   0.00  0.00  0.00  1.00  0.00  0.00  0.00  0.00  0.00
  YS02006558YS02006561    1.00   0.41  0.00  0.00  0.05  0.54  0.00  0.00  0.25  0.00
  YS02006561YS02001783    1.00   0.42  0.00  0.00  0.09  0.50  0.00  0.00  0.62  0.00
  YS02163301YS02001633    1.00   0.00  0.33  0.00  0.67  0.00  0.00  0.00  0.00  0.00
  YS02163601YS02164001    1.00   0.00  0.03  0.00  0.97  0.00  0.00  0.00  0.00  0.00
  YS02164001YS02001641    1.00   0.00  0.03  0.00  0.97  0.00  0.00  0.00  0.08  0.00
  YSB1154YSB6556          1.00   0.17  0.00  0.00  0.83  0.00  0.00  0.00  0.03  0.00
  YSB1171HS02004479       1.00   0.01  0.00  0.00  0.98  0.00  0.00  0.00  0.15  0.00
  YSB1174YSB1171          1.00   0.02  0.05  0.00  0.94  0.00  0.00  0.00  0.00  0.00
  YSB6556YSB1171          1.00   0.01  0.15  0.00  0.83  0.00  0.00  0.00  0.00  0.00
  
  
  *************************
  Conduit Surcharge Summary
  *************************
  
  ----------------------------------------------------------------------------
                                                           Hours        Hours 
                         --------- Hours Full --------   Above Full   Capacity
  Conduit                Both Ends  Upstream  Dnstream   Normal Flow   Limited
  ----------------------------------------------------------------------------
  HS02004478WS02006287        0.23      0.23      0.38      0.01         0.01
  HS02004479HS02004480        0.39      0.39      0.40      0.01         0.01
  HS02004480HS02004478        0.33      0.38      0.33      1.22         0.33
  HS02004770HS02004777        0.30      0.30      0.30      0.12         0.07
  HS02004777HS02004785        0.26      0.26      0.30      0.01         0.01
  HS02004785HS02004788        0.24      0.26      0.24      0.92         0.24
  HS02004788HS02004792        0.24      0.24      0.35      0.01         0.01
  HS02004792HS02004799        0.35      0.35      0.44      0.01         0.01
  HS02004799HS02004480        0.38      0.38      0.44      0.50         0.01
  HS02004802HS02004478        0.34      0.34      0.39      0.01         0.01
  HS02004807HS02004802        0.37      0.37      0.38      0.01         0.01
  HS02004817HS02004807        0.37      0.37      0.77      0.01         0.01
  HS02004817HS02004824        0.24      0.24      0.77      0.01         0.01
  HS02004824HS02004830        0.21      0.21      0.24      0.01         0.01
  HS02004830HS02004837        0.17      0.17      0.21      0.01         0.01
  HS02004837HS02004842        0.17      0.17      0.31      0.01         0.01
  HS02004842HS02004848        0.12      0.12      0.31      0.01         0.01
  HS02004848HS02004852        0.12      0.12      0.15      0.03         0.01
  HS02004852HS02004856        0.15      0.15      0.17      0.02         0.01
  HS02004856HS02004862        0.14      0.14      0.17      0.01         0.01
  HS02004862HS02004870        0.17      0.17      0.21      0.02         0.01
  HS02004870HS02004876        0.21      0.21      0.28      0.01         0.01
  HS02004876HS02004881        0.26      0.28      0.26      0.95         0.26
  HS02004881HS02006253        0.26      0.26      1.46      0.01         0.01
  HS02004901HS02004770        0.30      0.30      0.31      0.01         0.01
  WS02003072WS02003073        0.01      0.01      0.01      1.91         0.01
  WS02004401WS02004402        1.24      1.24      1.30      0.97         0.96
  WS02004402WS02004403        1.30      1.30      1.32      1.22         1.20
  WS02004403WS02004404        1.32      1.32      1.50      0.01         0.01
  WS02004404WS02004405        1.47      1.50      1.47      3.22         1.46
  WS02004405WS02004406        1.43      1.47      1.43      1.58         1.43
  WS02004406WS02004407        0.01      0.01      1.43      0.01         0.01
  WS02004407WS02004409        0.01      0.01      0.60      0.01         0.01
  WS02004409WS02004410        0.57      0.60      0.57      1.14         0.57
  WS02004410WS02004411        0.52      0.57      0.52      1.17         0.52
  WS02004411WS02004412        0.45      0.52      0.45      1.21         0.45
  WS02004412WS02004413        0.45      0.45      0.84      0.01         0.01
  WS02004413WS02003067        0.01      0.01      0.84      0.01         0.01
  WS02006109WS02006110        1.55      1.56      1.70      1.57         0.01
  WS02006110WS02006113        0.80      0.80      1.69      0.28         0.01
  WS02006111WS02006112        0.77      0.78      1.82      0.01         0.01
  WS02006112WS02006115        1.15      1.15      1.59      0.01         0.01
  WS02006113WS02006111        0.79      0.80      0.79      0.93         0.79
  WS02006115WS02006116        1.15      1.15      1.15      1.15         1.14
  WS02006116WS02004401        1.23      1.23      1.24      1.19         1.16
  WS02006228WS02006109        1.67      1.70      1.67      2.07         1.67
  WS02006229WS02006228        1.67      1.68      1.67      1.78         1.67
  WS02006230WS02006229        1.72      1.73      1.72      3.11         1.10
  WS02006231WS02006230        1.51      1.51      1.52      2.89         0.60
  WS02006232WS02006231        1.52      1.52      1.57      0.01         0.10
  WS02006234WS02006232        1.54      1.54      1.57      0.01         0.01
  WS02006235WS02006234        1.52      1.53      1.53      2.75         0.58
  WS02006238WS02006235        1.54      1.54      1.55      0.01         0.21
  WS02006239WS02006238        1.54      1.54      1.54      0.87         0.38
  WS02006240WS02006239        1.52      1.52      1.53      0.86         0.35
  WS02006242WS02006240        1.52      1.52      1.53      1.09         0.56
  WS02006243WS02006242        1.51      1.51      1.52      0.01         0.01
  WS02006245WS02006243        1.50      1.50      1.50      0.34         0.33
  WS02006247WS02006245        1.49      1.50      1.49      2.41         0.82
  WS02006248WS02006247        1.49      1.49      1.50      0.01         0.01
  WS02006249WS02006248        1.48      1.48      1.48      1.70         0.01
  WS02006251WS02006249        1.48      1.48      1.48      1.48         1.46
  WS02006252WS02006251        1.46      1.46      1.46      1.17         0.01
  WS02006253WS02006251        1.48      1.48      1.48      0.49         0.01
  WS02006256WS02006235        2.91      2.91      4.23      0.55         0.01
  WS02006280WS02006229        0.47      0.47      0.56      0.01         0.01
  WS02006284WS02006280        0.40      0.40      0.46      0.01         0.01
  WS02006287WS02006284        0.32      0.32      0.41      0.01         0.01
  YS02001580YS02001583        0.24      0.24      0.29      0.01         0.01
  YS02001583YS02001586        0.25      0.25      0.42      0.01         0.01
  YS02001586YS02001590        0.43      0.43      0.48      0.01         0.01
  YS02001590YS02001593        0.49      0.49      0.50      0.50         0.01
  YS02001593YS02001596        0.50      0.50      0.57      0.01         0.01
  YS02001596YS02001600        0.60      0.60      0.67      0.01         0.01
  YS02001600YS02001601        0.72      0.72      0.95      0.01         0.01
  YS02001601YS02001602        0.85      0.85      0.99      0.68         0.01
  YS02001602YS02001605        0.81      0.81      0.85      1.77         0.01
  YS02001605YS02001607        0.78      0.81      0.78      0.91         0.78
  YS02001607YS02001610        0.45      0.45      0.48      0.01         0.01
  YS02001610YS02001613        0.45      0.45      0.48      0.01         0.01
  YS02001613YS02001616        0.41      0.41      0.45      0.01         0.01
  YS02001616YS02001619        0.40      0.40      0.41      0.01         0.01
  YS02001619YS02001622        0.40      0.40      0.40      0.49         0.38
  YS02001622YS02001625        0.40      0.40      0.55      0.01         0.01
  YS02001625YS02001629        0.34      0.34      0.55      0.01         0.01
  YS02001629YS02163301        0.55      0.55      0.56      0.15         0.20
  YS02001633YS02163601        0.57      0.57      0.59      0.38         0.38
  YS02001641YS02001644        0.49      0.52      0.49      1.04         0.49
  YS02001644YS02001647        0.27      0.27      0.49      0.03         0.01
  YS02001647YS02001649        0.27      0.27      0.42      0.01         0.01
  YS02001649YS02001757        0.40      0.42      0.46      0.19         0.15
  YS02001652YS02001649        0.19      0.19      0.42      0.01         0.01
  YS02001655YS02001652        0.01      0.01      0.15      0.01         0.01
  YS02001754YS02001757        0.02      0.02      0.46      0.01         0.01
  YS02001757CaochengTiaoxuchi        0.41      0.46      0.88      0.19         0.09
  YS02001759YS02001757        0.36      0.36      0.46      0.01         0.01
  YS02001762YS02001759        0.33      0.33      0.36      0.01         0.01
  YS02001765YS02001762        0.25      0.25      0.33      0.01         0.01
  YS02001767YS02001765        0.21      0.21      0.25      0.01         0.01
  YS02001770YS02001767        0.21      0.21      0.21      0.32         0.13
  YS02001774YS02001770        0.18      0.18      0.30      0.01         0.01
  YS02001779YS02001774        0.01      0.01      0.30      0.01         0.01
  YS02001783YS02001784        0.35      0.38      0.35      0.38         0.32
  YS02001784YS02001785        0.26      0.35      0.26      0.58         0.25
  YS02001786YS02001788        0.10      0.26      0.10      0.50         0.10
  YS02001788YS02001790        0.10      0.10      0.13      0.01         0.01
  YS02001790YS02001791        0.12      0.13      0.13      0.26         0.04
  YS02001791YS02001793        0.13      0.13      0.26      0.01         0.01
  YS02001793JiankangQianchi        0.21      0.21      3.77      0.01         0.01
  YS02001882YS02001884        0.25      0.25      0.26      0.01         0.01
  YS02001884YS02001887        0.29      0.29      0.29      0.01         0.01
  YS02001887YS02001890        0.31      0.31      0.32      0.01         0.01
  YS02001890YS02001895        0.24      0.24      0.33      0.01         0.01
  YS02001895YS02001898        0.24      0.24      0.24      0.01         0.01
  YS02001898YS02001901        0.24      0.24      0.28      0.01         0.01
  YS02001901YS02001904        0.27      0.27      0.28      0.01         0.01
  YS02001904YS02001907        0.27      0.27      0.49      0.01         0.01
  YS02001907YS02006553        0.59      0.59      0.63      0.01         0.01
  YS02001910YS02001907        0.34      0.34      0.48      0.01         0.01
  YS02001915YS02001910        0.25      0.25      0.34      0.01         0.01
  YS02001918YS02001915        0.17      0.17      0.25      0.01         0.01
  YS02001920YS02001918        0.17      0.17      0.18      0.01         0.01
  YS02001923YS02001920        0.08      0.08      0.18      0.01         0.01
  YS02001926YS02001923        0.01      0.01      0.01      0.01         0.01
  YS02001929YS02001926        0.01      0.01      0.01      0.01         0.01
  YS02006553YS02006556        0.42      0.42      0.49      0.01         0.01
  YS02006556YS02006558        0.45      0.45      0.50      0.01         0.01
  YS02006558YS02006561        0.21      0.42      0.21      0.56         0.21
  YS02006561YS02001783        0.14      0.14      0.38      0.01         0.01
  YS02163301YS02001633        0.56      0.56      0.58      0.01         0.01
  YS02163601YS02164001        0.53      0.53      0.59      0.20         0.01
  YS02164001YS02001641        0.52      0.53      0.52      0.59         0.52
  YSB1154YSB6556              0.42      0.42      0.52      0.01         0.01
  YSB1171HS02004479           0.35      0.35      0.52      0.01         0.01
  YSB1174YSB1171              0.47      0.47      0.69      0.01         0.01
  YSB6556YSB1171              0.42      0.42      0.81      0.01         0.01
  
  
  ***************
  Pumping Summary
  ***************
  
  ---------------------------------------------------------------------------------------------------------
                                                  Min       Avg       Max     Total     Power    % Time Off
                        Percent   Number of      Flow      Flow      Flow    Volume     Usage    Pump Curve
  Pump                 Utilized   Start-Ups       LPS       LPS       LPS  10^6 ltr     Kw-hr    Low   High
  ---------------------------------------------------------------------------------------------------------
  CC-R1                   19.46           1      0.00    683.00    683.00     2.872     51.71    0.0   35.1
  CC-R2                   16.69           1      0.00    683.00    683.00     2.462     43.94    0.0   41.0
  CC-S1                   41.70           1      0.00    200.00    200.00     1.801     12.27    0.0    0.6
  CC-S2                   19.46           1      0.00    200.00    200.00     0.841      5.61    0.0    1.4
  JK-R1                    8.34           3      0.00    738.83   1000.00     1.261      8.59    0.0    0.0
  JK-R2                    8.34           3      0.00    738.83   1000.00     1.261      8.59    0.0    0.0
  JK-S                    13.91           4      0.00    263.21    300.00     0.756     14.15    0.0    0.0
  XR-1                    97.21           1      0.00     95.00     95.00     1.995      8.80    0.0    0.0
  XR-2                    91.94           1      0.00     95.00     95.00     1.887      7.97    0.0    0.0
  XR-3                     0.00           0      0.00      0.00      0.00     0.000      0.00    0.0    0.0
  XR-4                     0.00           0      0.00      0.00      0.00     0.000      0.00    0.0    0.0
  

  Analysis begun on:  Wed Aug 24 17:02:47 2022
  Analysis ended on:  Wed Aug 24 17:02:51 2022
  Total elapsed time: 00:00:04