
  OWA STORM WATER MANAGEMENT MODEL - VERSION v5.1.14 (OWA 2022-07-31)
  --------------------------------------------------------------

  WARNING 04: minimum elevation drop used for Conduit WS02004404WS02004405
  WARNING 03: negative offset ignored for Link YS02001904YS02001907
  
  *********************************************************
  NOTE: The summary statistics displayed in this report are
  based on results found at every computational time step,  
  not just on results from each reporting time step.
  *********************************************************
  
  ****************
  Analysis Options
  ****************
  Flow Units ............... LPS
  Process Models:
    Rainfall/Runoff ........ YES
    RDII ................... NO
    Snowmelt ............... NO
    Groundwater ............ NO
    Flow Routing ........... YES
    Ponding Allowed ........ NO
    Water Quality .......... NO
  Infiltration Method ...... HORTON
  Flow Routing Method ...... DYNWAVE
  Surcharge Method ......... EXTRAN
  Starting Date ............ 01/01/2000 00:00:00
  Ending Date .............. 01/01/2000 06:00:00
  Antecedent Dry Days ...... 8.0
  Report Time Step ......... 00:01:00
  Wet Time Step ............ 00:01:00
  Dry Time Step ............ 00:01:00
  Routing Time Step ........ 30.00 sec
  Variable Time Step ....... YES
  Maximum Trials ........... 8
  Number of Threads ........ 4
  Head Tolerance ........... 0.001500 m
  
  
  **************************        Volume         Depth
  Runoff Quantity Continuity     hectare-m            mm
  **************************     ---------       -------
  Total Precipitation ......         1.373        22.663
  Evaporation Loss .........         0.000         0.000
  Infiltration Loss ........         0.201         3.313
  Surface Runoff ...........         1.108        18.289
  Final Storage ............         0.065         1.065
  Continuity Error (%) .....        -0.017
  
  
  **************************        Volume        Volume
  Flow Routing Continuity        hectare-m      10^6 ltr
  **************************     ---------     ---------
  Dry Weather Inflow .......         0.472         4.722
  Wet Weather Inflow .......         1.108        11.078
  Groundwater Inflow .......         0.000         0.000
  RDII Inflow ..............         0.000         0.000
  External Inflow ..........         0.078         0.784
  External Outflow .........         1.411        14.109
  Flooding Loss ............         0.216         2.158
  Evaporation Loss .........         0.000         0.000
  Exfiltration Loss ........         0.000         0.000
  Initial Stored Volume ....         0.303         3.031
  Final Stored Volume ......         0.405         4.050
  Continuity Error (%) .....        -3.581
  
  
  *************************
  Highest Continuity Errors
  *************************
  Node JK-storage (-34.17%)
  Node HS02004842 (6.92%)
  Node YS02001884 (6.65%)
  Node YS02001583 (-3.04%)
  Node YS02001774 (2.77%)
  
  
  ***************************
  Time-Step Critical Elements
  ***************************
  Link WS02006280WS02006229 (27.58%)
  Link WS02003066WSF200 (16.38%)
  Link WS02004404WS02004405 (15.87%)
  Link YS02001793JiankangQianchi (7.43%)
  Link WS02006235WS02006234 (7.15%)
  
  
  ********************************
  Highest Flow Instability Indexes
  ********************************
  Link WS02006113WS02006111 (47)
  Link WS02006111WS02006112 (40)
  Link WS02006110WS02006113 (34)
  Link WS02006112WS02006115 (17)
  Link WS02006252WS02006251 (15)
  
  
  *************************
  Routing Time Step Summary
  *************************
  Minimum Time Step           :     0.50 sec
  Average Time Step           :     2.55 sec
  Maximum Time Step           :     8.46 sec
  Percent in Steady State     :     0.00
  Average Iterations per Step :     2.80
  Percent Not Converging      :     7.30
  
  
  ***************************
  Subcatchment Runoff Summary
  ***************************
  
  ------------------------------------------------------------------------------------------------------------------------------
                            Total      Total      Total      Total     Imperv       Perv      Total       Total     Peak  Runoff
                           Precip      Runon       Evap      Infil     Runoff     Runoff     Runoff      Runoff   Runoff   Coeff
  Subcatchment                 mm         mm         mm         mm         mm         mm         mm    10^6 ltr      LPS
  ------------------------------------------------------------------------------------------------------------------------------
  sub0                      22.66       0.00       0.00       0.85      19.81       0.74      20.55        0.02    10.42   0.907
  sub1                      22.66       0.00       0.00       1.46      18.86       1.03      19.89        0.13    69.13   0.878
  sub10                     22.66       0.00       0.00       1.03      19.51       0.79      20.30        0.22   117.88   0.896
  sub11                     22.66       0.00       0.00       1.01      19.55       0.81      20.35        0.24   130.85   0.898
  sub12                     22.66       0.00       0.00       1.64      18.52       1.31      19.83        0.17   104.82   0.875
  sub14                     22.66       0.00       0.00       1.15      19.32       0.89      20.21        0.19   103.19   0.892
  sub15                     22.66       0.00       0.00       4.50      14.85       2.30      17.15        0.29   152.32   0.757
  sub16                     22.66       0.00       0.00       4.69      14.25       2.79      17.04        0.18    98.06   0.752
  sub17                     22.66       0.00       0.00       4.57      14.46       2.68      17.14        0.15    79.85   0.756
  sub2                      22.66       0.00       0.00       6.17      13.32       2.22      15.54        0.14    68.12   0.685
  sub22                     22.66       0.00       0.00       6.74      12.11       3.01      15.12        0.95   485.54   0.667
  sub23                     22.66       0.00       0.00       5.56      13.39       2.82      16.21        0.77   405.21   0.715
  sub3                      22.66       0.00       0.00       6.47      13.24       1.91      15.16        0.34   149.04   0.669
  sub4                      22.66       0.00       0.00       1.62      18.57       0.87      19.44        0.41   171.98   0.858
  sub5                      22.66       0.00       0.00       0.89      19.71       0.69      20.40        0.23   120.29   0.900
  sub60                     22.66       0.00       0.00       1.55      18.70       1.17      19.88        0.26   146.18   0.877
  sub61                     22.66       0.00       0.00       2.25      17.65       1.60      19.25        0.35   198.85   0.849
  sub62                     22.66       0.00       0.00       1.03      19.50       0.78      20.28        0.56   290.48   0.895
  sub63                     22.66       0.00       0.00       4.16      15.09       2.41      17.50        0.40   213.58   0.772
  sub64                     22.66       0.00       0.00       2.11      17.99       1.29      19.28        0.46   235.12   0.851
  sub65                     22.66       0.00       0.00       1.82      18.38       1.12      19.50        0.54   265.85   0.860
  sub66                     22.66       0.00       0.00       4.88      14.90       1.70      16.60        0.77   338.57   0.732
  sub67                     22.66       0.00       0.00       0.99      19.58       0.83      20.40        0.38   226.41   0.900
  sub68                     22.66       0.00       0.00       1.87      18.26       1.31      19.57        0.54   289.05   0.863
  sub69                     22.66       0.00       0.00       1.60      19.07       1.80      20.86        0.77   361.15   0.921
  sub7                      22.66       0.00       0.00       1.13      19.34       0.91      20.25        0.07    38.79   0.894
  sub70                     22.66       0.00       0.00       5.02      14.67       2.68      17.35        0.50   196.31   0.766
  sub71                     22.66       0.00       0.00       1.06      19.43       0.75      20.18        0.53   261.42   0.890
  sub72                     22.66       0.00       0.00       0.95      19.53       0.64      20.17        0.28   127.71   0.890
  sub8                      22.66       0.00       0.00       1.15      19.33       0.89      20.22        0.13    70.48   0.892
  sub9                      22.66       0.00       0.00       1.15      19.32       0.89      20.21        0.10    52.55   0.892
  
  
  ******************
  Node Depth Summary
  ******************
  
  ---------------------------------------------------------------------------------
                                 Average  Maximum  Maximum  Time of Max    Reported
                                   Depth    Depth      HGL   Occurrence   Max Depth
  Node                 Type       Meters   Meters   Meters  days hr:min      Meters
  ---------------------------------------------------------------------------------
  HS02004478           JUNCTION     0.14     0.67     9.90     0  02:30        0.67
  HS02004479           JUNCTION     0.22     0.81    10.01     0  02:30        0.81
  HS02004480           JUNCTION     0.18     0.77    10.01     0  02:29        0.77
  HS02004770           JUNCTION     0.19     0.61    10.44     0  02:30        0.61
  HS02004777           JUNCTION     0.22     0.62    10.42     0  02:30        0.62
  HS02004785           JUNCTION     0.11     0.43    10.33     0  02:30        0.43
  HS02004788           JUNCTION     0.07     0.31    10.21     0  02:30        0.31
  HS02004792           JUNCTION     0.11     0.69    10.21     0  02:30        0.68
  HS02004799           JUNCTION     0.23     0.90    10.11     0  02:29        0.89
  HS02004802           JUNCTION     0.24     0.79     9.92     0  02:29        0.77
  HS02004807           JUNCTION     0.21     0.76     9.93     0  02:30        0.72
  HS02004817           JUNCTION     0.52     1.08     9.93     0  02:30        1.06
  HS02004824           JUNCTION     0.08     0.51     9.91     0  02:30        0.51
  HS02004830           JUNCTION     0.08     0.44     9.91     0  02:30        0.44
  HS02004837           JUNCTION     0.06     0.33     9.91     0  02:30        0.33
  HS02004842           JUNCTION     0.36     0.65     9.92     0  02:31        0.65
  HS02004848           JUNCTION     0.04     0.29     9.90     0  02:31        0.29
  HS02004852           JUNCTION     0.04     0.32     9.83     0  02:31        0.32
  HS02004856           JUNCTION     0.11     0.36     9.79     0  02:31        0.36
  HS02004862           JUNCTION     0.06     0.31     9.70     0  02:31        0.31
  HS02004870           JUNCTION     0.05     0.27     9.56     0  02:32        0.27
  HS02004876           JUNCTION     0.09     0.35     9.38     0  02:30        0.35
  HS02004881           JUNCTION     0.03     0.17     9.20     0  02:30        0.14
  HS02004901           JUNCTION     0.20     0.62    10.44     0  02:30        0.62
  WS02001211           JUNCTION     0.64     0.78     5.62     0  02:32        0.78
  WS02001212           JUNCTION     0.38     0.54     5.60     0  02:32        0.54
  WS02001213           JUNCTION     0.62     0.83     5.59     0  02:32        0.83
  WS02003059           JUNCTION     0.69     0.90     5.59     0  02:32        0.90
  WS02003060           JUNCTION     0.42     0.65     5.58     0  02:32        0.65
  WS02003066           JUNCTION     0.25     0.43     5.98     0  02:31        0.43
  WS02003067           JUNCTION     0.58     0.87     6.19     0  02:27        0.86
  WS02003069           JUNCTION     0.47     0.73     5.32     0  02:33        0.73
  WS02003072           JUNCTION     0.53     0.78     5.15     0  02:33        0.77
  WS02003073           JUNCTION     0.32     0.49     4.55     0  02:34        0.49
  WS02004138           JUNCTION     0.13     0.14     7.39     0  00:29        0.14
  WS02004139           JUNCTION     0.58     0.71     5.62     0  02:33        0.71
  WS02004401           JUNCTION     0.81     1.59     7.59     0  02:28        1.58
  WS02004402           JUNCTION     0.83     1.55     7.51     0  02:28        1.54
  WS02004403           JUNCTION     0.83     1.50     7.43     0  02:29        1.50
  WS02004404           JUNCTION     0.90     1.52     7.37     0  02:28        1.51
  WS02004405           JUNCTION     0.89     1.48     7.33     0  02:29        1.47
  WS02004406           JUNCTION     0.88     1.48     7.31     0  02:16        1.39
  WS02004407           JUNCTION     0.28     0.71     7.02     0  02:27        0.71
  WS02004409           JUNCTION     0.60     1.24     7.01     0  02:31        1.23
  WS02004410           JUNCTION     0.60     1.17     6.89     0  02:31        1.17
  WS02004411           JUNCTION     0.60     1.11     6.79     0  02:30        1.11
  WS02004412           JUNCTION     0.60     1.04     6.68     0  02:30        1.04
  WS02004413           JUNCTION     0.72     1.10     6.57     0  02:30        1.10
  WS02006109           JUNCTION     1.01     2.47     9.09     0  02:29        2.46
  WS02006110           JUNCTION     0.95     2.17     8.75     0  02:29        2.16
  WS02006111           JUNCTION     0.40     1.42     8.13     0  02:29        1.41
  WS02006112           JUNCTION     1.03     2.03     7.91     0  02:29        2.02
  WS02006113           JUNCTION     0.51     1.55     8.44     0  02:29        1.54
  WS02006115           JUNCTION     0.73     1.64     7.78     0  02:25        1.64
  WS02006116           JUNCTION     0.80     1.66     7.70     0  02:29        1.65
  WS02006228           JUNCTION     1.07     2.73     9.38     0  02:30        2.72
  WS02006229           JUNCTION     1.07     2.86     9.56     0  02:29        2.85
  WS02006230           JUNCTION     1.06     2.65     9.39     0  02:14        2.65
  WS02006231           JUNCTION     0.76     2.19     9.31     0  02:29        2.19
  WS02006232           JUNCTION     0.88     2.18     9.22     0  02:25        2.18
  WS02006234           JUNCTION     0.80     1.96     9.12     0  02:24        1.96
  WS02006235           JUNCTION     0.82     1.95     9.11     0  02:30        1.93
  WS02006238           JUNCTION     0.85     1.95     9.10     0  02:30        1.92
  WS02006239           JUNCTION     0.82     1.81     9.02     0  02:40        1.78
  WS02006240           JUNCTION     0.78     1.81     9.10     0  02:14        1.62
  WS02006242           JUNCTION     0.85     1.55     8.82     0  02:14        1.55
  WS02006243           JUNCTION     0.76     1.48     8.90     0  02:14        1.36
  WS02006245           JUNCTION     0.75     1.54     9.02     0  02:14        1.26
  WS02006247           JUNCTION     0.77     1.31     8.81     0  02:14        1.22
  WS02006248           JUNCTION     0.73     1.10     8.69     0  02:14        1.10
  WS02006249           JUNCTION     0.75     1.09     8.69     0  02:14        1.09
  WS02006251           JUNCTION     0.79     1.96     9.63     0  02:40        1.55
  WS02006252           JUNCTION     0.47     1.50     9.74     0  02:10        1.10
  WS02006253           JUNCTION     0.83     1.90     9.55     0  02:40        1.67
  WS02006256           JUNCTION     1.10     2.35     9.28     0  00:00        2.35
  WS02006280           JUNCTION     0.21     1.33     9.60     0  02:30        1.32
  WS02006284           JUNCTION     0.48     1.36     9.76     0  02:30        1.36
  WS02006287           JUNCTION     0.21     0.96     9.91     0  02:30        0.95
  WSF200               JUNCTION     0.26     0.49     5.72     0  02:32        0.48
  YS02001580           JUNCTION     0.02     0.57     9.11     0  02:31        0.52
  YS02001583           JUNCTION     0.05     0.60     9.09     0  02:31        0.57
  YS02001586           JUNCTION     0.11     0.91     9.09     0  02:31        0.88
  YS02001590           JUNCTION     0.20     1.19     9.05     0  02:31        1.16
  YS02001593           JUNCTION     0.13     1.15     9.01     0  02:31        1.13
  YS02001596           JUNCTION     0.19     1.57     8.98     0  02:31        1.54
  YS02001600           JUNCTION     0.26     1.81     8.94     0  02:31        1.80
  YS02001601           JUNCTION     0.47     2.06     8.90     0  02:30        2.06
  YS02001602           JUNCTION     0.39     1.80     8.70     0  02:30        1.78
  YS02001605           JUNCTION     0.35     1.58     8.49     0  02:30        1.54
  YS02001607           JUNCTION     0.35     1.23     8.08     0  02:30        1.19
  YS02001610           JUNCTION     0.39     1.27     8.07     0  02:30        1.23
  YS02001613           JUNCTION     0.35     1.21     8.05     0  02:30        1.18
  YS02001616           JUNCTION     0.28     1.12     8.03     0  02:30        1.10
  YS02001619           JUNCTION     0.26     1.09     8.02     0  02:30        1.07
  YS02001622           JUNCTION     0.25     1.08     7.98     0  02:30        1.04
  YS02001625           JUNCTION     0.51     1.30     7.91     0  02:30        1.27
  YS02001629           JUNCTION     0.42     1.30     7.84     0  02:30        1.27
  YS02001633           JUNCTION     0.50     1.31     7.77     0  02:30        1.29
  YS02001641           JUNCTION     0.49     1.11     7.55     0  02:30        1.10
  YS02001644           JUNCTION     0.49     1.05     7.48     0  02:30        1.05
  YS02001647           JUNCTION     0.29     0.69     7.30     0  02:30        0.69
  YS02001649           JUNCTION     0.40     0.86     7.25     0  02:44        0.85
  YS02001652           JUNCTION     0.26     0.65     7.25     0  02:44        0.65
  YS02001655           JUNCTION     0.14     0.39     7.24     0  02:45        0.39
  YS02001658           JUNCTION     0.05     0.21     7.35     0  02:30        0.21
  YS02001661           JUNCTION     0.12     0.27     7.67     0  02:30        0.27
  YS02001664           JUNCTION     0.05     0.18     8.10     0  02:30        0.18
  YS02001745           JUNCTION     0.04     0.16     7.68     0  02:25        0.16
  YS02001748           JUNCTION     0.06     0.18     7.26     0  02:25        0.18
  YS02001751           JUNCTION     0.12     0.35     7.23     0  02:44        0.35
  YS02001754           JUNCTION     0.24     0.62     7.23     0  02:45        0.62
  YS02001757           JUNCTION     0.47     0.97     7.23     0  02:45        0.97
  YS02001759           JUNCTION     0.40     0.86     7.23     0  02:45        0.86
  YS02001762           JUNCTION     0.38     0.83     7.23     0  02:43        0.82
  YS02001765           JUNCTION     0.35     0.78     7.23     0  02:46        0.78
  YS02001767           JUNCTION     0.33     0.74     7.23     0  02:45        0.74
  YS02001770           JUNCTION     0.34     0.73     7.23     0  02:44        0.73
  YS02001774           JUNCTION     0.40     0.81     7.23     0  02:44        0.80
  YS02001779           JUNCTION     0.20     0.54     7.23     0  02:46        0.54
  YS02001783           JUNCTION     0.19     0.73     6.87     0  02:32        0.72
  YS02001784           JUNCTION     0.21     0.72     6.79     0  02:32        0.72
  YS02001786           JUNCTION     0.18     0.59     6.62     0  02:32        0.59
  YS02001788           JUNCTION     0.13     0.47     6.45     0  02:31        0.47
  YS02001790           JUNCTION     0.16     0.56     6.21     0  02:31        0.56
  YS02001791           JUNCTION     0.10     0.34     5.81     0  02:31        0.34
  YS02001793           JUNCTION     0.06     0.50     5.33     0  02:40        0.20
  YS02001882           JUNCTION     0.23     0.77     7.48     0  02:31        0.77
  YS02001884           JUNCTION     0.32     0.87     7.48     0  02:30        0.86
  YS02001887           JUNCTION     0.40     0.94     7.48     0  02:30        0.94
  YS02001890           JUNCTION     0.43     0.97     7.48     0  02:31        0.97
  YS02001895           JUNCTION     0.20     0.73     7.47     0  02:31        0.72
  YS02001898           JUNCTION     0.21     0.74     7.47     0  02:31        0.73
  YS02001901           JUNCTION     0.32     0.86     7.47     0  02:31        0.86
  YS02001904           JUNCTION     0.30     0.84     7.47     0  02:32        0.84
  YS02001907           JUNCTION     0.62     1.18     7.47     0  02:31        1.18
  YS02001910           JUNCTION     0.41     0.97     7.48     0  02:32        0.97
  YS02001915           JUNCTION     0.22     0.76     7.48     0  02:31        0.76
  YS02001918           JUNCTION     0.08     0.41     7.48     0  02:31        0.41
  YS02001920           JUNCTION     0.17     0.48     7.49     0  02:31        0.48
  YS02001923           JUNCTION     0.05     0.22     7.48     0  02:31        0.21
  YS02001926           JUNCTION     0.11     0.30     7.74     0  02:30        0.30
  YS02001929           JUNCTION     0.05     0.17     7.86     0  02:30        0.17
  YS02006553           JUNCTION     0.62     1.17     7.46     0  02:30        1.17
  YS02006556           JUNCTION     0.60     1.13     7.44     0  02:31        1.13
  YS02006558           JUNCTION     0.64     1.17     7.44     0  02:31        1.16
  YS02006561           JUNCTION     0.11     0.39     7.05     0  02:29        0.39
  YS02163301           JUNCTION     0.44     1.29     7.81     0  02:30        1.27
  YS02163601           JUNCTION     0.54     1.27     7.66     0  02:30        1.25
  YS02164001           JUNCTION     0.48     1.14     7.60     0  02:30        1.13
  YSB1154              JUNCTION     0.35     0.97    10.03     0  02:29        0.97
  YSB1171              JUNCTION     0.50     1.12    10.03     0  02:30        1.11
  YSB1174              JUNCTION     0.31     0.92    10.03     0  02:29        0.91
  YSB6556              JUNCTION     0.25     0.86    10.03     0  02:29        0.86
  CC-1                 OUTFALL      0.00     0.00     0.00     0  00:00        0.00
  CC-2                 OUTFALL      0.00     0.00     0.00     0  00:00        0.00
  JK-1                 OUTFALL      0.00     0.00     0.00     0  00:00        0.00
  JK-2                 OUTFALL      0.00     0.00     0.00     0  00:00        0.00
  WSC                  OUTFALL      0.32     0.49     1.16     0  02:34        0.49
  CC-storage           STORAGE      1.17     1.70     7.20     0  03:03        1.70
  JK-storage           STORAGE      0.28     4.46     5.26     0  02:40        4.35
  XR-storage           STORAGE      7.83     8.66     6.66     0  06:00        8.66
  
  
  *******************
  Node Inflow Summary
  *******************
  
  -------------------------------------------------------------------------------------------------
                                  Maximum  Maximum                  Lateral       Total        Flow
                                  Lateral    Total  Time of Max      Inflow      Inflow     Balance
                                   Inflow   Inflow   Occurrence      Volume      Volume       Error
  Node                 Type           LPS      LPS  days hr:min    10^6 ltr    10^6 ltr     Percent
  -------------------------------------------------------------------------------------------------
  HS02004478           JUNCTION      0.00  1658.63     0  02:28           0         3.8      -0.013
  HS02004479           JUNCTION      0.00   225.56     0  02:25           0       0.413       0.189
  HS02004480           JUNCTION      0.00  1432.79     0  02:29           0        2.83       0.080
  HS02004770           JUNCTION    405.21   501.85     0  02:30       0.773        0.95       0.345
  HS02004777           JUNCTION      0.03   500.39     0  02:30    0.000648       0.948       0.569
  HS02004785           JUNCTION      0.15   499.57     0  02:30     0.00324       0.947       0.071
  HS02004788           JUNCTION    153.99   651.23     0  02:30       0.331        1.28       0.035
  HS02004792           JUNCTION    485.82  1135.66     0  02:30       0.961        2.24       0.023
  HS02004799           JUNCTION    103.19  1214.63     0  02:29       0.192        2.43       0.091
  HS02004802           JUNCTION      0.00   334.06     0  02:35           0       0.992       0.408
  HS02004807           JUNCTION    130.85   318.81     0  02:23       0.236       0.996       0.414
  HS02004817           JUNCTION      0.60   252.56     0  02:38       0.013       0.776       2.160
  HS02004824           JUNCTION    172.03   233.54     0  02:39       0.407       0.783       0.077
  HS02004830           JUNCTION      0.15   115.61     0  02:22     0.00324       0.397       0.319
  HS02004837           JUNCTION    124.23   201.78     0  02:30       0.361       0.471       0.180
  HS02004842           JUNCTION      0.00   193.78     0  02:30           0       0.188       7.435
  HS02004848           JUNCTION    149.04   332.76     0  02:31       0.341       0.425       0.028
  HS02004852           JUNCTION      0.00   329.61     0  02:31           0       0.333       0.032
  HS02004856           JUNCTION     52.55   372.07     0  02:31      0.0972        0.43       0.347
  HS02004862           JUNCTION     68.32   434.16     0  02:31       0.149       0.578       0.038
  HS02004870           JUNCTION     70.48   491.31     0  02:32       0.129       0.707       0.024
  HS02004876           JUNCTION     69.13   548.82     0  02:32       0.132       0.839       0.087
  HS02004881           JUNCTION     38.79   592.91     0  02:31      0.0682       0.907       0.070
  HS02004901           JUNCTION     98.06    98.06     0  02:25       0.178       0.179       1.042
  WS02001211           JUNCTION      7.35   208.09     0  02:46       0.159        4.02       0.825
  WS02001212           JUNCTION      0.00   218.57     0  02:45           0        3.98       0.395
  WS02001213           JUNCTION      0.00   224.66     0  02:45           0        3.97       0.473
  WS02003059           JUNCTION      0.00   231.86     0  02:45           0        3.96       0.853
  WS02003060           JUNCTION     16.53  1377.63     0  02:31       0.357          12       0.151
  WS02003066           JUNCTION      0.00  1169.56     0  02:30           0         7.7       0.033
  WS02003067           JUNCTION      0.00  1169.35     0  02:30           0         7.7       0.077
  WS02003069           JUNCTION      0.32  1377.04     0  02:32     0.00691          12       0.161
  WS02003072           JUNCTION      0.00  1376.83     0  02:33           0        11.9       0.213
  WS02003073           JUNCTION      1.82  1378.89     0  02:33      0.0393        11.9       0.234
  WS02004138           JUNCTION      0.00   190.00     0  00:29           0        3.88       0.080
  WS02004139           JUNCTION      0.32   192.76     0  00:29     0.00693        3.89       0.686
  WS02004401           JUNCTION      0.00  1170.07     0  02:30           0        7.84       0.157
  WS02004402           JUNCTION      0.00  1170.28     0  02:29           0        7.83       0.158
  WS02004403           JUNCTION      0.00  1170.05     0  02:29           0        7.82       0.149
  WS02004404           JUNCTION      0.16  1170.65     0  02:30      0.0035        7.81       0.121
  WS02004405           JUNCTION      0.04  1170.84     0  02:30    0.000823         7.8       0.187
  WS02004406           JUNCTION      0.00  1170.62     0  02:29           0        7.79       0.301
  WS02004407           JUNCTION      0.00  1170.31     0  02:29           0        7.76       0.037
  WS02004409           JUNCTION      0.00  1169.61     0  02:30           0        7.76       0.086
  WS02004410           JUNCTION      0.00  1169.73     0  02:30           0        7.75       0.112
  WS02004411           JUNCTION      0.00  1169.41     0  02:30           0        7.74       0.127
  WS02004412           JUNCTION      0.00  1169.36     0  02:30           0        7.73       0.154
  WS02004413           JUNCTION      0.00  1169.35     0  02:30           0        7.72       0.253
  WS02006109           JUNCTION      1.23  1095.02     0  02:32      0.0266        7.75       0.148
  WS02006110           JUNCTION      0.00  1095.04     0  02:32           0        7.74       0.124
  WS02006111           JUNCTION      0.00  1095.06     0  02:32           0        7.73      -0.006
  WS02006112           JUNCTION     79.85  1170.27     0  02:30       0.147        7.88       0.217
  WS02006113           JUNCTION      0.00  1095.04     0  02:32           0        7.73       0.043
  WS02006115           JUNCTION      0.00  1170.12     0  02:29           0        7.86       0.118
  WS02006116           JUNCTION      0.00  1170.14     0  02:30           0        7.85       0.110
  WS02006228           JUNCTION      0.00  1093.76     0  02:32           0        7.73       0.098
  WS02006229           JUNCTION      0.00  1635.97     0  02:30           0        8.22       0.099
  WS02006230           JUNCTION     10.28   554.97     0  02:30       0.222        4.91       0.157
  WS02006231           JUNCTION      0.00   453.18     0  02:31           0        4.65      -0.100
  WS02006232           JUNCTION      0.00   453.26     0  02:31           0        4.65       0.132
  WS02006234           JUNCTION      0.00   453.01     0  02:30           0        4.64      -0.056
  WS02006235           JUNCTION      0.00   417.96     0  03:27           0        4.66       0.074
  WS02006238           JUNCTION      0.00   417.91     0  03:27           0        4.52       0.002
  WS02006239           JUNCTION      0.00   417.88     0  03:27           0        4.51      -0.002
  WS02006240           JUNCTION      0.00   417.84     0  03:27           0        4.51       0.011
  WS02006242           JUNCTION      0.00   421.44     0  02:13           0         4.5       0.019
  WS02006243           JUNCTION      0.00   462.46     0  02:13           0        4.38      -0.073
  WS02006245           JUNCTION      0.00   493.52     0  02:13           0        4.38       0.083
  WS02006247           JUNCTION      0.00   492.28     0  02:13           0        4.38      -0.050
  WS02006248           JUNCTION      0.00   521.26     0  02:12           0        4.48      -0.030
  WS02006249           JUNCTION      0.00   946.86     0  02:30           0        5.49       0.022
  WS02006251           JUNCTION      0.08   947.10     0  02:30     0.00166         5.5      -0.003
  WS02006252           JUNCTION      0.00   400.00     0  02:10           0        4.57      -0.024
  WS02006253           JUNCTION     10.42   765.27     0  02:30      0.0166       0.927      -0.096
  WS02006256           JUNCTION      0.00   300.00     0  00:00           0       0.386      -0.476
  WS02006280           JUNCTION      0.00  1635.57     0  02:30           0         3.8      -0.002
  WS02006284           JUNCTION      0.10  1635.38     0  02:30     0.00207        3.81       0.029
  WS02006287           JUNCTION      0.00  1641.93     0  02:29           0         3.8       0.025
  WSF200               JUNCTION      0.00  1169.35     0  02:30           0        7.69       0.025
  YS02001580           JUNCTION      0.00    42.61     0  02:29           0      0.0042       1.284
  YS02001583           JUNCTION      0.00    72.89     0  02:29           0      0.0146      -2.947
  YS02001586           JUNCTION    196.31   206.77     0  02:33       0.501       0.512       0.165
  YS02001590           JUNCTION      0.00   208.85     0  02:36           0       0.501      -0.001
  YS02001593           JUNCTION      0.00   208.98     0  02:36           0       0.501      -0.005
  YS02001596           JUNCTION      0.00   209.14     0  02:37           0       0.501      -0.010
  YS02001600           JUNCTION      0.00   209.48     0  02:37           0       0.501      -0.004
  YS02001601           JUNCTION    361.15   518.04     0  02:31       0.772        1.27       0.085
  YS02001602           JUNCTION      0.00   516.83     0  02:31           0        1.27       0.057
  YS02001605           JUNCTION      0.00   516.97     0  02:31           0        1.27       0.082
  YS02001607           JUNCTION      0.00   516.98     0  02:31           0        1.27       0.184
  YS02001610           JUNCTION      0.00   517.22     0  02:31           0        1.27       0.216
  YS02001613           JUNCTION      0.00   517.37     0  02:31           0        1.27       0.160
  YS02001616           JUNCTION      0.00   517.48     0  02:31           0        1.26       0.058
  YS02001619           JUNCTION    338.57   833.72     0  02:30       0.774        2.04       0.018
  YS02001622           JUNCTION      0.00   837.37     0  02:31           0        2.04       0.035
  YS02001625           JUNCTION      0.00   840.76     0  02:31           0        2.04       0.796
  YS02001629           JUNCTION      0.00   840.51     0  02:31           0        2.02      -0.116
  YS02001633           JUNCTION    266.05  1094.86     0  02:30       0.541        2.56       0.161
  YS02001641           JUNCTION      0.00  1094.41     0  02:30           0        2.56       0.128
  YS02001644           JUNCTION    235.16  1318.28     0  02:30       0.464        3.02       0.125
  YS02001647           JUNCTION      0.00  1318.78     0  02:30           0        3.01       0.012
  YS02001649           JUNCTION      0.00  1493.47     0  02:31           0        3.41       0.023
  YS02001652           JUNCTION      0.00   211.41     0  02:28           0         0.4      -0.293
  YS02001655           JUNCTION      0.15   212.38     0  02:30     0.00332       0.401       0.285
  YS02001658           JUNCTION      0.00   213.33     0  02:30           0       0.397      -0.079
  YS02001661           JUNCTION      0.00   213.49     0  02:30           0       0.397       0.089
  YS02001664           JUNCTION    213.58   213.58     0  02:30       0.397       0.397      -0.003
  YS02001745           JUNCTION    146.18   146.18     0  02:25       0.261       0.261       0.068
  YS02001748           JUNCTION      0.04   146.29     0  02:25    0.000972       0.262      -0.137
  YS02001751           JUNCTION      0.01   146.63     0  02:25    0.000238       0.267       0.478
  YS02001754           JUNCTION      0.26   148.69     0  02:26     0.00562       0.292      -0.473
  YS02001757           JUNCTION      0.00  1937.05     0  02:30           0        4.63       0.070
  YS02001759           JUNCTION    198.89   403.37     0  02:25       0.354       0.923       0.002
  YS02001762           JUNCTION      0.00   222.68     0  02:25           0       0.569       0.031
  YS02001765           JUNCTION      0.00   240.91     0  02:26           0       0.569       0.037
  YS02001767           JUNCTION      0.54   263.78     0  02:26      0.0116       0.569       0.050
  YS02001770           JUNCTION    290.63   290.63     0  02:30       0.559        0.59       0.002
  YS02001774           JUNCTION      0.00    36.42     0  02:31           0      0.0438       2.853
  YS02001779           JUNCTION      0.01    25.39     0  02:32    0.000108      0.0122       0.083
  YS02001783           JUNCTION      0.00   798.43     0  02:32           0        1.74       0.020
  YS02001784           JUNCTION      1.06   799.66     0  02:32      0.0229        1.76       0.034
  YS02001786           JUNCTION      0.06   798.28     0  02:32     0.00122        1.76       0.041
  YS02001788           JUNCTION      0.07   797.74     0  02:32     0.00153        1.77       0.021
  YS02001790           JUNCTION      0.15   798.00     0  02:31     0.00335        1.77       0.030
  YS02001791           JUNCTION      0.00   834.54     0  02:32           0        1.77       0.007
  YS02001793           JUNCTION      0.00   800.73     0  02:31           0        1.77       0.004
  YS02001882           JUNCTION      0.00    14.06     0  02:24           0      0.0101       7.231
  YS02001884           JUNCTION      0.00    31.74     0  02:24           0      0.0397       7.124
  YS02001887           JUNCTION    226.86   226.86     0  02:25       0.389       0.416       1.130
  YS02001890           JUNCTION      0.00   209.61     0  02:26           0       0.381       1.406
  YS02001895           JUNCTION      0.00   203.41     0  02:26           0       0.376       0.366
  YS02001898           JUNCTION      0.00   193.65     0  02:26           0       0.375       0.181
  YS02001901           JUNCTION      0.00   197.76     0  02:31           0       0.377       0.882
  YS02001904           JUNCTION      0.00   207.07     0  02:36           0        0.38       0.810
  YS02001907           JUNCTION      0.00   573.16     0  02:36           0        1.24       1.468
  YS02001910           JUNCTION      0.00   386.47     0  02:33           0       0.866       0.849
  YS02001915           JUNCTION    261.44   371.19     0  02:29       0.528       0.867       0.214
  YS02001918           JUNCTION      0.00   137.07     0  02:34           0        0.34       0.105
  YS02001920           JUNCTION      2.87   132.24     0  02:31       0.062       0.341       0.326
  YS02001923           JUNCTION      0.04   126.61     0  02:30    0.000814       0.279       0.016
  YS02001926           JUNCTION      0.05   127.52     0  02:30     0.00113       0.278       0.150
  YS02001929           JUNCTION    127.71   127.71     0  02:30       0.277       0.277       0.008
  YS02006553           JUNCTION      0.00   575.04     0  02:36           0        1.23       0.971
  YS02006556           JUNCTION      0.00   575.48     0  02:36           0        1.23       0.686
  YS02006558           JUNCTION    289.93   799.37     0  02:31       0.557        1.77       0.202
  YS02006561           JUNCTION      0.00   798.02     0  02:32           0        1.74       0.004
  YS02163301           JUNCTION      0.00   843.83     0  02:31           0        2.02       0.094
  YS02163601           JUNCTION      0.11  1094.59     0  02:30     0.00238        2.56       0.211
  YS02164001           JUNCTION      0.00  1094.64     0  02:30           0        2.56       0.105
  YSB1154              JUNCTION    120.29   120.29     0  02:30       0.231       0.232       0.626
  YSB1171              JUNCTION      0.00   225.60     0  02:25           0       0.413       1.547
  YSB1174              JUNCTION    104.82   104.82     0  02:25       0.173       0.174       0.732
  YSB6556              JUNCTION      0.00   120.46     0  02:29           0       0.233       0.511
  CC-1                 OUTFALL       0.00     0.00     0  00:00           0           0       0.000 ltr
  CC-2                 OUTFALL       0.00     0.00     0  00:00           0           0       0.000 ltr
  JK-1                 OUTFALL       0.00  1000.00     0  00:00           0        1.26       0.000
  JK-2                 OUTFALL       0.00  1000.00     0  02:20           0       0.932       0.000
  WSC                  OUTFALL       0.00  1379.43     0  02:34           0        11.9       0.000
  CC-storage           STORAGE       0.00  1873.50     0  02:31           0        6.83      -0.083
  JK-storage           STORAGE       0.00  1230.20     0  02:40           0        1.92     -25.466
  XR-storage           STORAGE     200.00   200.00     0  00:00        4.32        4.92       0.001
  
  
  **********************
  Node Surcharge Summary
  **********************
  
  Surcharging occurs when water rises above the top of the highest conduit.
  ---------------------------------------------------------------------
                                               Max. Height   Min. Depth
                                   Hours       Above Crown    Below Rim
  Node                 Type      Surcharged         Meters       Meters
  ---------------------------------------------------------------------
  HS02004479           JUNCTION        0.01          0.008        1.042
  HS02004480           JUNCTION        0.09          0.058        1.042
  HS02004799           JUNCTION        0.20          0.195        0.865
  HS02004802           JUNCTION        0.11          0.081        1.129
  HS02004807           JUNCTION        0.07          0.056        1.164
  HS02004817           JUNCTION        0.53          0.380        1.360
  WS02004401           JUNCTION        0.83          0.594        1.066
  WS02004402           JUNCTION        0.87          0.552        1.188
  WS02004403           JUNCTION        0.88          0.499        1.531
  WS02004404           JUNCTION        1.03          0.524        2.256
  WS02004405           JUNCTION        0.99          0.484        2.316
  WS02004406           JUNCTION        0.96          0.484        1.966
  WS02004409           JUNCTION        0.37          0.240        2.120
  WS02004410           JUNCTION        0.36          0.174        2.366
  WS02004411           JUNCTION        0.30          0.108        2.422
  WS02004412           JUNCTION        0.23          0.037        2.273
  WS02004413           JUNCTION        0.63          0.103        2.097
  WS02006109           JUNCTION        3.41          1.651        0.169
  WS02006110           JUNCTION        1.28          1.255        0.595
  WS02006111           JUNCTION        0.54          0.612        1.258
  WS02006112           JUNCTION        1.48          1.029        0.651
  WS02006113           JUNCTION        0.57          0.752        1.178
  WS02006115           JUNCTION        0.76          0.633        1.617
  WS02006116           JUNCTION        0.77          0.597        1.693
  WS02006228           JUNCTION        3.40          1.902        0.298
  WS02006229           JUNCTION        0.32          0.681        0.389
  WS02006230           JUNCTION        1.08          1.570        0.000
  WS02006231           JUNCTION        1.30          1.479        0.051
  WS02006232           JUNCTION        3.32          1.480        0.000
  WS02006234           JUNCTION        3.19          1.240        0.000
  WS02006235           JUNCTION        3.30          1.237        0.053
  WS02006238           JUNCTION        3.31          1.234        0.196
  WS02006239           JUNCTION        3.29          1.068        0.222
  WS02006240           JUNCTION        3.29          1.095        0.295
  WS02006242           JUNCTION        3.31          0.820        0.000
  WS02006243           JUNCTION        3.29          0.770        0.000
  WS02006245           JUNCTION        3.29          0.828        0.022
  WS02006247           JUNCTION        3.29          0.604        0.156
  WS02006248           JUNCTION        3.28          0.380        0.000
  WS02006249           JUNCTION        3.29          0.390        0.000
  WS02006251           JUNCTION        1.43          0.932        0.248
  WS02006252           JUNCTION        3.34          1.100        0.000
  WS02006253           JUNCTION        1.49          0.865        1.615
  WS02006256           JUNCTION        4.55          2.050        0.000
  WS02006280           JUNCTION        0.22          0.281        0.499
  WS02006284           JUNCTION        0.14          0.082        0.718
  YS02001586           JUNCTION        0.10          0.294        0.216
  YS02001590           JUNCTION        0.19          0.538        0.212
  YS02001593           JUNCTION        0.19          0.531        0.309
  YS02001596           JUNCTION        0.30          0.836        0.234
  YS02001600           JUNCTION        0.40          1.134        0.056
  YS02001601           JUNCTION        0.70          1.440        0.000
  YS02001602           JUNCTION        0.60          1.203        0.067
  YS02001605           JUNCTION        0.56          0.983        0.197
  YS02001607           JUNCTION        0.13          0.229        0.451
  YS02001610           JUNCTION        0.16          0.272        0.408
  YS02001613           JUNCTION        0.12          0.207        0.493
  YS02001616           JUNCTION        0.06          0.120        0.490
  YS02001619           JUNCTION        0.05          0.091        0.519
  YS02001622           JUNCTION        0.03          0.079        0.541
  YS02001625           JUNCTION        0.26          0.302        0.478
  YS02001633           JUNCTION        0.28          0.294        0.766
  YS02001641           JUNCTION        0.18          0.113        0.987
  YS02001644           JUNCTION        0.11          0.050        0.870
  YS02001907           JUNCTION        0.26          0.172        0.778
  YS02006553           JUNCTION        0.27          0.175        1.015
  YS02006556           JUNCTION        0.16          0.092        1.258
  YS02006558           JUNCTION        0.15          0.070        1.330
  YS02163301           JUNCTION        0.26          0.294        0.736
  YS02163601           JUNCTION        0.32          0.266        0.814
  YS02164001           JUNCTION        0.19          0.143        0.957
  YSB1154              JUNCTION        0.29          0.273        1.127
  YSB1171              JUNCTION        0.29          0.272        0.828
  YSB1174              JUNCTION        0.24          0.216        1.034
  YSB6556              JUNCTION        0.18          0.158        0.942
  
  
  *********************
  Node Flooding Summary
  *********************
  
  Flooding refers to all water that overflows a node, whether it ponds or not.
  --------------------------------------------------------------------------
                                                             Total   Maximum
                                 Maximum   Time of Max       Flood    Ponded
                        Hours       Rate    Occurrence      Volume     Depth
  Node                 Flooded       LPS   days hr:min    10^6 ltr    Meters
  --------------------------------------------------------------------------
  WS02006230              0.15    195.50      0  02:14       0.039     0.000
  WS02006232              0.03      0.38      0  02:31       0.000     0.000
  WS02006234              0.21    127.96      0  02:31       0.059     0.000
  WS02006242              0.30    137.07      0  02:31       0.117     0.000
  WS02006248              0.48    341.95      0  02:26       0.424     0.000
  WS02006249              1.21    884.74      0  02:30       1.334     0.000
  WS02006252              0.01    262.37      0  02:10       0.001     0.000
  WS02006256              0.37    297.73      0  02:30       0.184     0.000
  YS02001601              0.01      3.84      0  02:31       0.000     0.000
  
  
  **********************
  Storage Volume Summary
  **********************
  
  --------------------------------------------------------------------------------------------------
                         Average     Avg  Evap Exfil       Maximum     Max    Time of Max    Maximum
                          Volume    Pcnt  Pcnt  Pcnt        Volume    Pcnt     Occurrence    Outflow
  Storage Unit           1000 m3    Full  Loss  Loss       1000 m3    Full    days hr:min        LPS
  --------------------------------------------------------------------------------------------------
  CC-storage               3.274      51     0     0         4.740      74       0  03:03     400.00
  JK-storage               0.014       5     0     0         0.224      77       0  02:40    2000.00
  XR-storage               0.940      65     0     0         1.039      72       0  06:00     190.00
  
  
  ***********************
  Outfall Loading Summary
  ***********************
  
  -----------------------------------------------------------
                         Flow       Avg       Max       Total
                         Freq      Flow      Flow      Volume
  Outfall Node           Pcnt       LPS       LPS    10^6 ltr
  -----------------------------------------------------------
  CC-1                   0.00      0.00      0.00       0.000
  CC-2                   0.00      0.00      0.00       0.000
  JK-1                  81.76    115.66   1000.00       1.256
  JK-2                  28.86    276.34   1000.00       0.932
  WSC                   99.95    692.47   1379.43      11.921
  -----------------------------------------------------------
  System                42.11   1084.47   1379.43      14.109
  
  
  ********************
  Link Flow Summary
  ********************
  
  -----------------------------------------------------------------------------
                                 Maximum  Time of Max   Maximum    Max/    Max/
                                  |Flow|   Occurrence   |Veloc|    Full    Full
  Link                 Type          LPS  days hr:min     m/sec    Flow   Depth
  -----------------------------------------------------------------------------
  1                    CONDUIT   1379.43     0  02:34      3.62    0.48    0.49
  HS02004478WS02006287 CONDUIT   1641.93     0  02:29      2.62    0.46    0.86
  HS02004479HS02004480 CONDUIT    234.35     0  02:27      0.33    0.23    1.00
  HS02004480HS02004478 CONDUIT   1433.08     0  02:29      2.21    6.04    0.96
  HS02004770HS02004777 CONDUIT    500.36     0  02:30      0.82    0.92    0.87
  HS02004777HS02004785 CONDUIT    499.42     0  02:30      0.95    0.61    0.75
  HS02004785HS02004788 CONDUIT    499.72     0  02:30      1.35    3.77    0.53
  HS02004788HS02004792 CONDUIT    650.22     0  02:30      1.48    0.43    0.71
  HS02004792HS02004799 CONDUIT   1124.14     0  02:31      1.71    0.69    0.99
  HS02004799HS02004480 CONDUIT   1214.55     0  02:29      1.74    1.53    1.00
  HS02004802HS02004478 CONDUIT    348.33     0  02:38      0.71    0.31    0.98
  HS02004807HS02004802 CONDUIT    334.06     0  02:35      0.62    0.64    1.00
  HS02004817HS02004807 CONDUIT    252.83     0  02:38      0.42    0.15    1.00
  HS02004817HS02004824 CONDUIT    251.96     0  02:38      0.51    0.11    0.86
  HS02004824HS02004830 CONDUIT    116.02     0  02:39      0.62    0.15    0.68
  HS02004830HS02004837 CONDUIT    115.46     0  02:22      0.72    0.12    0.55
  HS02004837HS02004842 CONDUIT    193.78     0  02:30      0.42    0.12    0.70
  HS02004842HS02004848 CONDUIT    191.94     0  02:31      0.41    0.11    0.67
  HS02004848HS02004852 CONDUIT    329.61     0  02:31      1.08    0.37    0.44
  HS02004852HS02004856 CONDUIT    328.21     0  02:31      0.97    0.38    0.48
  HS02004856HS02004862 CONDUIT    373.01     0  02:31      1.24    0.37    0.43
  HS02004862HS02004870 CONDUIT    435.45     0  02:32      1.50    0.47    0.42
  HS02004870HS02004876 CONDUIT    491.73     0  02:32      1.61    0.33    0.44
  HS02004876HS02004881 CONDUIT    560.18     0  02:31      2.38    5.96    0.37
  HS02004881HS02006253 CONDUIT    757.30     0  02:30      2.41    0.15    0.62
  HS02004901HS02004770 CONDUIT     98.18     0  02:30      0.16    0.37    0.87
  WS02001211WS02001212 CONDUIT    218.57     0  02:45      0.54    0.17    0.66
  WS02001212WS02001213 CONDUIT    224.66     0  02:45      1.04    0.35    0.52
  WS02001213WS02003059 CONDUIT    231.86     0  02:45      0.47    0.38    0.86
  WS02003059WS02003060 CONDUIT    240.73     0  02:44      0.67    0.16    0.77
  WS02003060WS02003069 CONDUIT   1376.72     0  02:32      2.04    0.54    0.58
  WS02003066WSF200     CONDUIT   1169.35     0  02:30      3.23    0.20    0.36
  WS02003067WS02003066 CONDUIT   1169.56     0  02:30      1.88    0.37    0.54
  WS02003069WS02003072 CONDUIT   1376.83     0  02:33      1.84    0.66    0.63
  WS02003072WS02003073 CONDUIT   1377.07     0  02:33      1.99    2.97    0.59
  WS02004138WS02004139 CONDUIT    192.44     0  00:29      2.15    0.04    0.40
  WS02004139WS02001211 CONDUIT    200.74     0  02:46      0.54    0.25    0.58
  WS02004401WS02004402 CONDUIT   1170.28     0  02:29      1.49    1.40    1.00
  WS02004402WS02004403 CONDUIT   1170.05     0  02:29      1.49    1.68    1.00
  WS02004403WS02004404 CONDUIT   1170.49     0  02:30      1.49    0.85    1.00
  WS02004404WS02004405 CONDUIT   1170.80     0  02:30      1.49   11.47    1.00
  WS02004405WS02004406 CONDUIT   1170.62     0  02:29      1.49    2.31    1.00
  WS02004406WS02004407 CONDUIT   1170.31     0  02:29      1.72    0.52    0.85
  WS02004407WS02004409 CONDUIT   1169.61     0  02:30      1.85    0.41    0.85
  WS02004409WS02004410 CONDUIT   1169.73     0  02:30      1.49    1.51    1.00
  WS02004410WS02004411 CONDUIT   1169.41     0  02:30      1.49    1.60    1.00
  WS02004411WS02004412 CONDUIT   1169.36     0  02:30      1.49    1.66    1.00
  WS02004412WS02004413 CONDUIT   1169.35     0  02:30      1.49    0.78    1.00
  WS02004413WS02003067 CONDUIT   1169.35     0  02:30      1.85    0.50    0.75
  WS02006109WS02006110 CONDUIT   1095.04     0  02:32      2.18    2.11    1.00
  WS02006110WS02006113 CONDUIT   1095.04     0  02:32      2.18    1.00    1.00
  WS02006111WS02006112 CONDUIT   1095.05     0  02:32      2.18    0.52    1.00
  WS02006112WS02006115 CONDUIT   1170.12     0  02:29      1.49    0.69    1.00
  WS02006113WS02006111 CONDUIT   1095.06     0  02:32      2.66    1.31    1.00
  WS02006115WS02006116 CONDUIT   1170.14     0  02:30      1.49    1.50    1.00
  WS02006116WS02004401 CONDUIT   1170.07     0  02:30      1.49    1.61    1.00
  WS02006228WS02006109 CONDUIT   1093.79     0  02:32      2.18    4.78    1.00
  WS02006229WS02006228 CONDUIT   1093.76     0  02:32      2.18    3.62    1.00
  WS02006230WS02006229 CONDUIT    544.69     0  02:30      1.42   12.12    1.00
  WS02006231WS02006230 CONDUIT    453.18     0  02:31      1.23    6.87    1.00
  WS02006232WS02006231 CONDUIT    453.26     0  02:31      1.18    0.95    1.00
  WS02006234WS02006232 CONDUIT    453.01     0  02:30      1.39    0.92    1.00
  WS02006235WS02006234 CONDUIT    418.04     0  03:28      1.09    4.41    1.00
  WS02006238WS02006235 CONDUIT    417.96     0  03:27      1.46    0.93    1.00
  WS02006239WS02006238 CONDUIT    417.91     0  03:27      1.09    1.34    1.00
  WS02006240WS02006239 CONDUIT    417.88     0  03:27      1.09    1.31    1.00
  WS02006242WS02006240 CONDUIT    417.84     0  03:27      1.09    1.66    1.00
  WS02006243WS02006242 CONDUIT    421.44     0  02:13      1.18    0.90    1.00
  WS02006245WS02006243 CONDUIT    462.46     0  02:13      1.44    1.37    1.00
  WS02006247WS02006245 CONDUIT    493.52     0  02:13      1.46    3.91    1.00
  WS02006248WS02006247 CONDUIT    492.28     0  02:13      1.37    1.07    1.00
  WS02006249WS02006248 CONDUIT    521.26     0  02:12      1.46    2.86    1.00
  WS02006251WS02006249 CONDUIT    946.86     0  02:30      2.46    2.73    1.00
  WS02006252WS02006251 CONDUIT    413.15     0  02:40      4.75    1.52    1.00
  WS02006253WS02006251 CONDUIT    764.45     0  02:30      1.99    2.29    1.00
  WS02006256WS02006235 CONDUIT    288.92     0  00:00      4.23    3.06    1.00
  WS02006280WS02006229 CONDUIT   1635.97     0  02:30      4.09    0.35    1.00
  WS02006284WS02006280 CONDUIT   1635.57     0  02:30      2.97    0.68    1.00
  WS02006287WS02006284 CONDUIT   1635.28     0  02:30      2.76    0.76    0.98
  WSF200WS02003060     CONDUIT   1169.84     0  02:28      2.33    0.26    0.47
  YS02001580YS02001583 CONDUIT     42.61     0  02:29      0.45    0.17    0.94
  YS02001583YS02001586 CONDUIT     72.89     0  02:29      0.33    0.11    0.96
  YS02001586YS02001590 CONDUIT    208.85     0  02:36      1.25    0.37    1.00
  YS02001590YS02001593 CONDUIT    208.98     0  02:36      1.00    1.31    1.00
  YS02001593YS02001596 CONDUIT    209.14     0  02:37      1.64    0.33    1.00
  YS02001596YS02001600 CONDUIT    209.48     0  02:37      1.12    0.41    1.00
  YS02001600YS02001601 CONDUIT    209.74     0  02:37      0.74    0.36    1.00
  YS02001601YS02001602 CONDUIT    516.83     0  02:31      1.83    1.87    1.00
  YS02001602YS02001605 CONDUIT    516.97     0  02:31      1.83   10.94    1.00
  YS02001605YS02001607 CONDUIT    516.98     0  02:31      1.83    2.83    1.00
  YS02001607YS02001610 CONDUIT    517.22     0  02:31      0.66    0.49    1.00
  YS02001610YS02001613 CONDUIT    517.37     0  02:31      0.66    0.60    1.00
  YS02001613YS02001616 CONDUIT    517.48     0  02:31      0.66    0.44    1.00
  YS02001616YS02001619 CONDUIT    517.82     0  02:32      0.67    0.90    1.00
  YS02001619YS02001622 CONDUIT    837.37     0  02:31      1.21    1.23    1.00
  YS02001622YS02001625 CONDUIT    840.76     0  02:31      1.07    0.45    1.00
  YS02001625YS02001629 CONDUIT    840.51     0  02:31      1.10    0.40    0.96
  YS02001629YS02163301 CONDUIT    843.83     0  02:31      1.07    1.04    1.00
  YS02001633YS02163601 CONDUIT   1094.48     0  02:30      1.39    1.15    1.00
  YS02001641YS02001644 CONDUIT   1094.36     0  02:30      1.39    3.54    1.00
  YS02001644YS02001647 CONDUIT   1318.78     0  02:30      1.87    0.77    0.84
  YS02001647YS02001649 CONDUIT   1313.90     0  02:30      2.12    0.69    0.75
  YS02001649YS02001757 CONDUIT   1479.25     0  02:31      2.19    0.90    0.91
  YS02001652YS02001649 CONDUIT    198.93     0  02:27      0.68    0.10    0.75
  YS02001655YS02001652 CONDUIT    211.41     0  02:28      1.36    0.10    0.50
  YS02001658YS02001655 CONDUIT    212.23     0  02:30      1.77    0.09    0.27
  YS02001661YS02001658 CONDUIT    213.33     0  02:30      1.91    0.08    0.20
  YS02001664YS02001661 CONDUIT    213.49     0  02:30      1.66    0.07    0.22
  YS02001745YS02001748 CONDUIT    146.25     0  02:25      1.79    0.06    0.16
  YS02001748YS02001751 CONDUIT    146.62     0  02:25      1.49    0.07    0.25
  YS02001751YS02001754 CONDUIT    148.43     0  02:26      1.50    0.07    0.46
  YS02001754YS02001757 CONDUIT    138.15     0  02:27      0.51    0.06    0.79
  YS02001757CaochengTiaoxuchi CONDUIT   1873.50     0  02:31      2.47    0.81    0.98
  YS02001759YS02001757 CONDUIT    382.91     0  02:25      0.90    0.27    0.92
  YS02001762YS02001759 CONDUIT    207.59     0  02:34      0.60    0.24    0.84
  YS02001765YS02001762 CONDUIT    222.68     0  02:25      0.71    0.21    0.80
  YS02001767YS02001765 CONDUIT    240.91     0  02:26      0.81    0.30    0.76
  YS02001770YS02001767 CONDUIT    263.24     0  02:26      0.80    1.04    0.73
  YS02001774YS02001770 CONDUIT     36.42     0  02:31      0.13    0.02    0.75
  YS02001779YS02001774 CONDUIT     25.39     0  02:32      0.05    0.01    0.67
  YS02001783YS02001784 CONDUIT    798.60     0  02:32      1.67    1.10    0.90
  YS02001784YS02001785 CONDUIT    798.22     0  02:32      1.81    1.86    0.82
  YS02001786YS02001788 CONDUIT    797.67     0  02:32      2.25    1.54    0.66
  YS02001788YS02001790 CONDUIT    797.85     0  02:31      2.34    0.59    0.64
  YS02001790YS02001791 CONDUIT    834.54     0  02:32      2.89    0.91    0.56
  YS02001791YS02001793 CONDUIT    800.73     0  02:31      5.85    0.34    0.48
  YS02001793JiankangQianchi CONDUIT   1230.20     0  02:40     18.50    0.10    0.75
  YS02001882YS02001884 CONDUIT     17.05     0  02:37      0.05    0.02    0.79
  YS02001884YS02001887 CONDUIT     37.87     0  02:37      0.06    0.05    0.88
  YS02001887YS02001890 CONDUIT    209.61     0  02:26      0.30    0.36    0.93
  YS02001890YS02001895 CONDUIT    203.41     0  02:26      0.32    0.09    0.85
  YS02001895YS02001898 CONDUIT    193.65     0  02:26      0.37    0.34    0.72
  YS02001898YS02001901 CONDUIT    197.76     0  02:31      0.34    0.13    0.80
  YS02001901YS02001904 CONDUIT    207.07     0  02:36      0.33    0.32    0.85
  YS02001904YS02001907 CONDUIT    217.35     0  02:36      0.30    0.08    0.92
  YS02001907YS02006553 CONDUIT    575.04     0  02:36      0.64    0.68    1.00
  YS02001910YS02001907 CONDUIT    385.87     0  02:32      0.50    0.22    0.99
  YS02001915YS02001910 CONDUIT    386.47     0  02:33      0.55    0.19    0.86
  YS02001918YS02001915 CONDUIT    152.98     0  02:33      0.44    0.08    0.58
  YS02001920YS02001918 CONDUIT    137.07     0  02:34      0.63    0.13    0.44
  YS02001923YS02001920 CONDUIT    129.37     0  02:31      0.71    0.06    0.35
  YS02001926YS02001923 CONDUIT    126.57     0  02:30      0.84    0.18    0.25
  YS02001929YS02001926 CONDUIT    127.47     0  02:30      0.92    0.06    0.23
  YS02006553YS02006556 CONDUIT    575.48     0  02:36      0.73    0.49    1.00
  YS02006556YS02006558 CONDUIT    578.10     0  02:36      0.74    0.46    1.00
  YS02006558YS02006561 CONDUIT    798.02     0  02:32      3.19    1.76    0.83
  YS02006561YS02001783 CONDUIT    798.43     0  02:32      2.13    0.41    0.70
  YS02163301YS02001633 CONDUIT    844.28     0  02:31      1.07    0.79    1.00
  YS02163601YS02164001 CONDUIT   1094.64     0  02:30      1.39    0.97    1.00
  YS02164001YS02001641 CONDUIT   1094.41     0  02:30      1.39    1.49    1.00
  YSB1154YSB6556       CONDUIT    120.46     0  02:29      0.31    0.22    1.00
  YSB1171HS02004479    CONDUIT    225.56     0  02:25      0.54    0.15    1.00
  YSB1174YSB1171       CONDUIT    105.07     0  02:25      0.27    0.16    1.00
  YSB6556YSB1171       CONDUIT    121.06     0  02:27      0.31    0.12    1.00
  CC-R1                PUMP         0.00     0  00:00              0.00
  CC-R2                PUMP         0.00     0  00:00              0.00
  CC-S1                PUMP       200.00     0  02:10              1.00
  CC-S2                PUMP       200.00     0  02:10              1.00
  JK-R1                PUMP      1000.00     0  00:00              1.00
  JK-R2                PUMP      1000.00     0  02:20              1.00
  JK-S                 PUMP       300.00     0  00:00              1.00
  XR-1                 PUMP        95.00     0  00:10              1.00
  XR-2                 PUMP        95.00     0  00:29              1.00
  XR-3                 PUMP         0.00     0  00:00              0.00
  XR-4                 PUMP         0.00     0  00:00              0.00
  
  
  ***************************
  Flow Classification Summary
  ***************************
  
  -------------------------------------------------------------------------------------
                      Adjusted    ---------- Fraction of Time in Flow Class ---------- 
                       /Actual         Up    Down  Sub   Sup   Up    Down  Norm  Inlet 
  Conduit               Length    Dry  Dry   Dry   Crit  Crit  Crit  Crit  Ltd   Ctrl  
  -------------------------------------------------------------------------------------
  1                       1.00   0.00  0.00  0.00  0.00  1.00  0.00  0.00  0.42  0.00
  HS02004478WS02006287    1.00   0.09  0.00  0.00  0.58  0.34  0.00  0.00  0.55  0.00
  HS02004479HS02004480    1.00   0.03  0.00  0.00  0.97  0.00  0.00  0.00  0.17  0.00
  HS02004480HS02004478    1.00   0.07  0.00  0.00  0.47  0.00  0.00  0.46  0.00  0.00
  HS02004770HS02004777    1.00   0.00  0.07  0.00  0.93  0.00  0.00  0.00  0.06  0.00
  HS02004777HS02004785    1.00   0.00  0.00  0.00  1.00  0.00  0.00  0.00  0.21  0.00
  HS02004785HS02004788    1.00   0.00  0.00  0.00  1.00  0.00  0.00  0.00  0.00  0.00
  HS02004788HS02004792    1.00   0.00  0.00  0.00  0.99  0.01  0.00  0.00  0.97  0.00
  HS02004792HS02004799    1.00   0.00  0.00  0.00  0.99  0.01  0.00  0.00  0.92  0.00
  HS02004799HS02004480    1.00   0.00  0.02  0.00  0.91  0.00  0.06  0.00  0.00  0.00
  HS02004802HS02004478    1.00   0.07  0.01  0.00  0.93  0.00  0.00  0.00  0.03  0.00
  HS02004807HS02004802    1.00   0.07  0.00  0.00  0.92  0.00  0.00  0.01  0.01  0.00
  HS02004817HS02004807    1.00   0.00  0.07  0.00  0.93  0.00  0.00  0.00  0.01  0.00
  HS02004817HS02004824    1.00   0.00  0.00  0.00  1.00  0.00  0.00  0.00  0.88  0.00
  HS02004824HS02004830    1.00   0.00  0.00  0.00  1.00  0.00  0.00  0.00  0.01  0.00
  HS02004830HS02004837    1.00   0.00  0.00  0.00  1.00  0.00  0.00  0.00  0.94  0.00
  HS02004837HS02004842    1.00   0.00  0.00  0.00  0.99  0.01  0.00  0.00  0.14  0.00
  HS02004842HS02004848    1.00   0.00  0.07  0.00  0.93  0.00  0.00  0.00  0.50  0.00
  HS02004848HS02004852    1.00   0.07  0.00  0.00  0.93  0.00  0.00  0.00  0.60  0.00
  HS02004852HS02004856    1.00   0.07  0.01  0.00  0.93  0.00  0.00  0.00  0.67  0.00
  HS02004856HS02004862    1.00   0.00  0.11  0.00  0.89  0.00  0.00  0.00  0.69  0.00
  HS02004862HS02004870    1.00   0.00  0.00  0.00  1.00  0.00  0.00  0.00  0.08  0.00
  HS02004870HS02004876    1.00   0.01  0.00  0.00  0.99  0.00  0.00  0.00  0.90  0.00
  HS02004876HS02004881    1.00   0.02  0.00  0.00  0.70  0.28  0.00  0.00  0.00  0.00
  HS02004881HS02006253    1.00   0.04  0.00  0.00  0.73  0.00  0.00  0.23  0.56  0.00
  HS02004901HS02004770    1.00   0.07  0.00  0.00  0.93  0.00  0.00  0.00  0.01  0.00
  WS02001211WS02001212    1.00   0.00  0.02  0.00  0.98  0.00  0.00  0.00  0.00  0.00
  WS02001212WS02001213    1.00   0.02  0.00  0.00  0.76  0.00  0.22  0.00  0.00  0.00
  WS02001213WS02003059    1.00   0.00  0.01  0.00  0.99  0.00  0.00  0.00  0.00  0.00
  WS02003059WS02003060    1.00   0.00  0.00  0.00  1.00  0.00  0.00  0.00  0.04  0.00
  WS02003060WS02003069    1.00   0.00  0.00  0.00  0.98  0.02  0.00  0.00  0.31  0.00
  WS02003066WSF200        1.00   0.18  0.00  0.00  0.00  0.82  0.00  0.00  0.38  0.00
  WS02003067WS02003066    1.00   0.17  0.01  0.00  0.82  0.00  0.00  0.00  0.00  0.00
  WS02003069WS02003072    1.00   0.00  0.00  0.00  1.00  0.00  0.00  0.00  0.35  0.00
  WS02003072WS02003073    1.00   0.00  0.00  0.00  0.00  0.00  0.00  1.00  0.00  0.00
  WS02004138WS02004139    1.00   0.02  0.00  0.00  0.98  0.00  0.00  0.00  0.97  0.00
  WS02004139WS02001211    1.00   0.00  0.01  0.00  0.99  0.00  0.00  0.00  0.01  0.00
  WS02004401WS02004402    1.00   0.03  0.00  0.00  0.97  0.00  0.00  0.00  0.04  0.00
  WS02004402WS02004403    1.00   0.03  0.00  0.00  0.97  0.00  0.00  0.00  0.00  0.00
  WS02004403WS02004404    1.00   0.00  0.03  0.00  0.97  0.00  0.00  0.00  0.04  0.00
  WS02004404WS02004405    1.00   0.00  0.00  0.00  1.00  0.00  0.00  0.00  0.00  0.00
  WS02004405WS02004406    1.00   0.00  0.00  0.00  1.00  0.00  0.00  0.00  0.04  0.00
  WS02004406WS02004407    1.00   0.00  0.12  0.00  0.88  0.00  0.00  0.00  0.00  0.00
  WS02004407WS02004409    1.00   0.12  0.00  0.00  0.87  0.01  0.00  0.00  0.64  0.00
  WS02004409WS02004410    1.00   0.12  0.00  0.00  0.88  0.00  0.00  0.00  0.00  0.00
  WS02004410WS02004411    1.00   0.12  0.00  0.00  0.88  0.00  0.00  0.00  0.00  0.00
  WS02004411WS02004412    1.00   0.12  0.00  0.00  0.88  0.00  0.00  0.00  0.00  0.00
  WS02004412WS02004413    1.00   0.13  0.00  0.00  0.87  0.01  0.00  0.00  0.01  0.00
  WS02004413WS02003067    1.00   0.13  0.04  0.00  0.00  0.00  0.83  0.00  0.00  0.00
  WS02006109WS02006110    1.00   0.00  0.01  0.00  0.99  0.00  0.00  0.00  0.00  0.00
  WS02006110WS02006113    1.00   0.01  0.01  0.00  0.98  0.00  0.00  0.00  0.00  0.00
  WS02006111WS02006112    1.00   0.02  0.00  0.00  0.98  0.00  0.00  0.00  0.80  0.00
  WS02006112WS02006115    1.00   0.02  0.01  0.00  0.97  0.00  0.00  0.00  0.00  0.00
  WS02006113WS02006111    1.00   0.02  0.00  0.00  0.22  0.76  0.00  0.00  0.16  0.00
  WS02006115WS02006116    1.00   0.03  0.00  0.00  0.93  0.00  0.00  0.04  0.01  0.00
  WS02006116WS02004401    1.00   0.03  0.00  0.00  0.97  0.00  0.00  0.00  0.01  0.00
  WS02006228WS02006109    1.00   0.00  0.00  0.00  1.00  0.00  0.00  0.00  0.00  0.00
  WS02006229WS02006228    1.00   0.00  0.00  0.00  0.99  0.00  0.00  0.01  0.00  0.00
  WS02006230WS02006229    1.00   0.00  0.00  0.00  0.99  0.00  0.00  0.01  0.02  0.00
  WS02006231WS02006230    1.00   0.00  0.00  0.00  0.81  0.00  0.19  0.00  0.00  0.00
  WS02006232WS02006231    1.00   0.00  0.00  0.00  0.99  0.00  0.00  0.00  0.00  0.00
  WS02006234WS02006232    1.00   0.00  0.00  0.00  1.00  0.00  0.00  0.00  0.21  0.00
  WS02006235WS02006234    1.00   0.00  0.00  0.00  0.87  0.00  0.13  0.00  0.00  0.00
  WS02006238WS02006235    1.00   0.00  0.00  0.00  1.00  0.00  0.00  0.00  0.00  0.00
  WS02006239WS02006238    1.00   0.00  0.00  0.00  1.00  0.00  0.00  0.00  0.09  0.00
  WS02006240WS02006239    1.00   0.00  0.00  0.00  0.85  0.00  0.00  0.15  0.02  0.00
  WS02006242WS02006240    1.00   0.00  0.00  0.00  1.00  0.00  0.00  0.00  0.00  0.00
  WS02006243WS02006242    1.00   0.01  0.00  0.00  0.99  0.00  0.00  0.00  0.38  0.00
  WS02006245WS02006243    1.00   0.01  0.01  0.00  0.85  0.00  0.00  0.13  0.00  0.00
  WS02006247WS02006245    1.00   0.02  0.00  0.00  0.94  0.00  0.00  0.04  0.00  0.00
  WS02006248WS02006247    1.00   0.02  0.00  0.00  0.96  0.00  0.00  0.03  0.23  0.00
  WS02006249WS02006248    1.00   0.00  0.02  0.00  0.79  0.00  0.19  0.00  0.00  0.00
  WS02006251WS02006249    1.00   0.00  0.00  0.00  1.00  0.00  0.00  0.00  0.36  0.00
  WS02006252WS02006251    1.00   0.21  0.07  0.00  0.38  0.00  0.33  0.00  0.08  0.00
  WS02006253WS02006251    1.00   0.03  0.03  0.00  0.93  0.00  0.01  0.00  0.00  0.00
  WS02006256WS02006235    1.00   0.00  0.00  0.00  1.00  0.00  0.00  0.00  0.00  0.00
  WS02006280WS02006229    1.00   0.07  0.00  0.00  0.14  0.08  0.00  0.71  0.01  0.00
  WS02006284WS02006280    1.00   0.07  0.00  0.00  0.09  0.01  0.00  0.82  0.00  0.00
  WS02006287WS02006284    1.00   0.06  0.03  0.00  0.43  0.48  0.00  0.00  0.62  0.00
  WSF200WS02003060        1.00   0.00  0.18  0.00  0.08  0.74  0.00  0.00  0.06  0.00
  YS02001580YS02001583    1.00   0.29  0.45  0.00  0.27  0.00  0.00  0.00  0.56  0.00
  YS02001583YS02001586    1.00   0.12  0.54  0.00  0.34  0.00  0.01  0.00  0.56  0.00
  YS02001586YS02001590    1.00   0.07  0.00  0.00  0.60  0.05  0.00  0.28  0.49  0.00
  YS02001590YS02001593    1.00   0.07  0.01  0.00  0.10  0.00  0.82  0.00  0.00  0.00
  YS02001593YS02001596    1.00   0.07  0.00  0.00  0.13  0.01  0.00  0.78  0.02  0.00
  YS02001596YS02001600    1.00   0.07  0.00  0.00  0.25  0.03  0.00  0.64  0.07  0.00
  YS02001600YS02001601    1.00   0.07  0.01  0.00  0.92  0.00  0.00  0.00  0.56  0.00
  YS02001601YS02001602    1.00   0.07  0.01  0.00  0.93  0.00  0.00  0.00  0.00  0.00
  YS02001602YS02001605    1.00   0.07  0.00  0.00  0.92  0.00  0.00  0.00  0.00  0.00
  YS02001605YS02001607    1.00   0.08  0.00  0.00  0.92  0.00  0.00  0.00  0.01  0.00
  YS02001607YS02001610    1.00   0.07  0.01  0.00  0.92  0.00  0.00  0.00  0.04  0.00
  YS02001610YS02001613    1.00   0.07  0.00  0.00  0.93  0.00  0.00  0.00  0.03  0.00
  YS02001613YS02001616    1.00   0.07  0.00  0.00  0.93  0.00  0.00  0.00  0.02  0.00
  YS02001616YS02001619    1.00   0.07  0.00  0.00  0.93  0.00  0.00  0.00  0.00  0.00
  YS02001619YS02001622    1.00   0.07  0.00  0.00  0.93  0.00  0.00  0.00  0.06  0.00
  YS02001622YS02001625    1.00   0.07  0.00  0.00  0.93  0.00  0.00  0.00  0.12  0.00
  YS02001625YS02001629    1.00   0.07  0.05  0.00  0.38  0.00  0.50  0.00  0.00  0.00
  YS02001629YS02163301    1.00   0.09  0.01  0.00  0.89  0.00  0.00  0.00  0.00  0.00
  YS02001633YS02163601    1.00   0.00  0.01  0.00  0.99  0.00  0.00  0.00  0.22  0.00
  YS02001641YS02001644    1.00   0.00  0.01  0.00  0.99  0.00  0.00  0.00  0.00  0.00
  YS02001644YS02001647    1.00   0.00  0.12  0.00  0.88  0.00  0.00  0.00  0.00  0.00
  YS02001647YS02001649    1.00   0.00  0.12  0.00  0.79  0.08  0.00  0.00  0.25  0.00
  YS02001649YS02001757    1.00   0.00  0.00  0.00  0.89  0.11  0.00  0.00  0.41  0.00
  YS02001652YS02001649    1.00   0.00  0.00  0.00  0.97  0.03  0.00  0.00  0.51  0.00
  YS02001655YS02001652    1.00   0.00  0.00  0.00  0.51  0.02  0.00  0.47  0.11  0.00
  YS02001658YS02001655    1.00   0.00  0.08  0.00  0.69  0.23  0.00  0.00  0.70  0.00
  YS02001661YS02001658    1.00   0.08  0.00  0.00  0.25  0.68  0.00  0.00  0.66  0.00
  YS02001664YS02001661    1.00   0.07  0.00  0.00  0.76  0.18  0.00  0.00  0.83  0.00
  YS02001745YS02001748    1.00   0.00  0.00  0.00  0.00  0.08  0.00  0.92  0.05  0.00
  YS02001748YS02001751    1.00   0.00  0.00  0.00  0.79  0.21  0.00  0.00  0.69  0.00
  YS02001751YS02001754    1.00   0.00  0.00  0.00  0.48  0.01  0.00  0.51  0.11  0.00
  YS02001754YS02001757    1.00   0.00  0.00  0.00  1.00  0.00  0.00  0.00  0.59  0.00
  YS02001757CaochengTiaoxuchi    1.00   0.00  0.00  0.00  1.00  0.00  0.00  0.00  0.21  0.00
  YS02001759YS02001757    1.00   0.00  0.00  0.00  1.00  0.00  0.00  0.00  0.42  0.00
  YS02001762YS02001759    1.00   0.00  0.00  0.00  1.00  0.00  0.00  0.00  0.12  0.00
  YS02001765YS02001762    1.00   0.00  0.00  0.00  1.00  0.00  0.00  0.00  0.43  0.00
  YS02001767YS02001765    1.00   0.00  0.00  0.00  1.00  0.00  0.00  0.00  0.01  0.00
  YS02001770YS02001767    1.00   0.00  0.00  0.00  1.00  0.00  0.00  0.00  0.00  0.00
  YS02001774YS02001770    1.00   0.00  0.07  0.00  0.93  0.00  0.00  0.00  0.08  0.00
  YS02001779YS02001774    1.00   0.00  0.00  0.00  1.00  0.00  0.00  0.00  0.55  0.00
  YS02001783YS02001784    1.00   0.00  0.13  0.00  0.87  0.00  0.00  0.00  0.43  0.00
  YS02001784YS02001785    1.00   0.00  0.00  0.00  1.00  0.00  0.00  0.00  0.29  0.00
  YS02001786YS02001788    1.00   0.00  0.00  0.00  0.56  0.44  0.00  0.00  0.00  0.00
  YS02001788YS02001790    1.00   0.00  0.00  0.00  0.15  0.85  0.00  0.00  0.84  0.00
  YS02001790YS02001791    1.00   0.00  0.00  0.00  0.01  0.99  0.00  0.00  0.18  0.00
  YS02001791YS02001793    1.00   0.00  0.00  0.00  0.00  1.00  0.00  0.00  0.00  0.00
  YS02001793JiankangQianchi    1.00   0.00  0.00  0.00  0.14  0.86  0.00  0.00  0.10  0.00
  YS02001882YS02001884    1.00   0.09  0.01  0.00  0.90  0.00  0.00  0.00  0.00  0.00
  YS02001884YS02001887    1.00   0.04  0.02  0.00  0.94  0.00  0.00  0.00  0.00  0.00
  YS02001887YS02001890    1.00   0.00  0.00  0.00  0.98  0.00  0.02  0.00  0.00  0.00
  YS02001890YS02001895    1.00   0.00  0.11  0.00  0.89  0.00  0.00  0.00  0.00  0.00
  YS02001895YS02001898    1.00   0.11  0.01  0.00  0.86  0.00  0.02  0.00  0.00  0.00
  YS02001898YS02001901    1.00   0.10  0.02  0.00  0.88  0.00  0.00  0.00  0.02  0.00
  YS02001901YS02001904    1.00   0.10  0.00  0.00  0.90  0.00  0.00  0.00  0.00  0.00
  YS02001904YS02001907    1.00   0.00  0.10  0.00  0.90  0.00  0.00  0.00  0.00  0.00
  YS02001907YS02006553    1.00   0.00  0.02  0.00  0.98  0.00  0.00  0.00  0.00  0.00
  YS02001910YS02001907    1.00   0.00  0.00  0.00  0.98  0.00  0.00  0.02  0.17  0.00
  YS02001915YS02001910    1.00   0.00  0.00  0.00  0.98  0.02  0.00  0.00  0.28  0.00
  YS02001918YS02001915    1.00   0.00  0.01  0.00  0.98  0.01  0.00  0.00  0.74  0.00
  YS02001920YS02001918    1.00   0.00  0.01  0.00  0.99  0.00  0.00  0.00  0.00  0.00
  YS02001923YS02001920    1.00   0.00  0.00  0.00  1.00  0.00  0.00  0.00  0.98  0.00
  YS02001926YS02001923    1.00   0.00  0.04  0.00  0.00  0.00  0.96  0.00  0.00  0.00
  YS02001929YS02001926    1.00   0.00  0.07  0.00  0.93  0.00  0.00  0.00  0.83  0.00
  YS02006553YS02006556    1.00   0.01  0.00  0.00  0.99  0.00  0.00  0.00  0.04  0.00
  YS02006556YS02006558    1.00   0.00  0.00  0.00  1.00  0.00  0.00  0.00  0.00  0.00
  YS02006558YS02006561    1.00   0.13  0.00  0.00  0.00  0.87  0.00  0.00  0.25  0.00
  YS02006561YS02001783    1.00   0.13  0.00  0.00  0.07  0.80  0.00  0.00  0.61  0.00
  YS02163301YS02001633    1.00   0.00  0.09  0.00  0.91  0.00  0.00  0.00  0.00  0.00
  YS02163601YS02164001    1.00   0.00  0.04  0.00  0.95  0.00  0.00  0.00  0.00  0.00
  YS02164001YS02001641    1.00   0.01  0.04  0.00  0.95  0.00  0.00  0.00  0.08  0.00
  YSB1154YSB6556          1.00   0.06  0.00  0.00  0.94  0.00  0.00  0.00  0.03  0.00
  YSB1171HS02004479       1.00   0.03  0.00  0.00  0.97  0.00  0.00  0.01  0.15  0.00
  YSB1174YSB1171          1.00   0.03  0.02  0.00  0.95  0.00  0.00  0.00  0.00  0.00
  YSB6556YSB1171          1.00   0.03  0.04  0.00  0.94  0.00  0.00  0.00  0.00  0.00
  
  
  *************************
  Conduit Surcharge Summary
  *************************
  
  ----------------------------------------------------------------------------
                                                           Hours        Hours 
                         --------- Hours Full --------   Above Full   Capacity
  Conduit                Both Ends  Upstream  Dnstream   Normal Flow   Limited
  ----------------------------------------------------------------------------
  HS02004478WS02006287        0.01      0.01      0.10      0.01         0.01
  HS02004479HS02004480        0.10      0.10      0.14      0.01         0.01
  HS02004480HS02004478        0.01      0.09      0.01      0.96         0.01
  HS02004785HS02004788        0.01      0.01      0.01      0.67         0.01
  HS02004792HS02004799        0.01      0.01      0.20      0.01         0.01
  HS02004799HS02004480        0.09      0.09      0.20      0.26         0.01
  HS02004802HS02004478        0.01      0.01      0.12      0.01         0.01
  HS02004807HS02004802        0.07      0.07      0.11      0.01         0.01
  HS02004817HS02004807        0.07      0.07      0.52      0.01         0.01
  HS02004817HS02004824        0.01      0.01      0.52      0.01         0.01
  HS02004876HS02004881        0.01      0.01      0.01      0.70         0.01
  HS02004881HS02006253        0.01      0.01      1.49      0.01         0.01
  WS02003072WS02003073        0.01      0.01      0.01      3.60         0.01
  WS02004401WS02004402        0.83      0.83      0.87      0.71         0.70
  WS02004402WS02004403        0.87      0.87      0.88      0.84         0.82
  WS02004403WS02004404        0.88      0.88      1.03      0.01         0.01
  WS02004404WS02004405        0.99      1.03      0.99      3.90         0.99
  WS02004405WS02004406        0.96      0.99      0.96      1.37         0.96
  WS02004406WS02004407        0.01      0.01      0.96      0.01         0.01
  WS02004407WS02004409        0.01      0.01      0.37      0.01         0.01
  WS02004409WS02004410        0.36      0.37      0.36      0.76         0.36
  WS02004410WS02004411        0.30      0.36      0.30      0.80         0.30
  WS02004411WS02004412        0.23      0.30      0.23      0.83         0.23
  WS02004412WS02004413        0.23      0.23      0.63      0.01         0.01
  WS02004413WS02003067        0.01      0.01      0.63      0.01         0.01
  WS02006109WS02006110        1.28      1.28      3.44      1.28         0.01
  WS02006110WS02006113        0.57      0.57      3.43      0.01         0.01
  WS02006111WS02006112        0.54      0.54      3.55      0.01         0.01
  WS02006112WS02006115        0.76      0.76      1.48      0.01         0.01
  WS02006113WS02006111        0.55      0.57      0.56      0.70         0.55
  WS02006115WS02006116        0.77      0.77      0.77      0.77         0.75
  WS02006116WS02004401        0.83      0.83      0.83      0.81         0.78
  WS02006228WS02006109        3.41      3.44      3.41      3.62         3.41
  WS02006229WS02006228        3.40      3.42      3.40      3.53         3.40
  WS02006230WS02006229        3.47      3.48      3.47      3.59         2.96
  WS02006231WS02006230        1.08      1.08      1.34      3.45         0.39
  WS02006232WS02006231        1.30      1.30      3.32      0.01         0.02
  WS02006234WS02006232        3.29      3.29      3.32      0.01         0.01
  WS02006235WS02006234        3.18      3.18      3.30      3.37         0.37
  WS02006238WS02006235        3.30      3.30      3.32      0.01         0.08
  WS02006239WS02006238        3.31      3.31      3.31      2.80         2.53
  WS02006240WS02006239        3.29      3.29      3.29      2.79         2.52
  WS02006242WS02006240        3.29      3.29      3.32      2.87         0.30
  WS02006243WS02006242        3.29      3.29      3.31      0.01         0.01
  WS02006245WS02006243        3.29      3.29      3.29      2.54         2.50
  WS02006247WS02006245        3.29      3.30      3.29      3.24         2.85
  WS02006248WS02006247        3.28      3.28      3.29      0.02         0.01
  WS02006249WS02006248        3.28      3.28      3.29      2.77         0.01
  WS02006251WS02006249        3.29      3.31      3.29      3.28         3.23
  WS02006252WS02006251        3.34      3.34      3.34      3.17         0.01
  WS02006253WS02006251        3.31      3.31      3.32      0.25         0.01
  WS02006256WS02006235        3.58      3.59      4.54      0.25         0.01
  WS02006280WS02006229        0.23      0.23      0.32      0.01         0.01
  WS02006284WS02006280        0.14      0.14      0.22      0.01         0.01
  WS02006287WS02006284        0.01      0.01      0.15      0.01         0.01
  YS02001583YS02001586        0.01      0.01      0.10      0.01         0.01
  YS02001586YS02001590        0.11      0.11      0.19      0.01         0.01
  YS02001590YS02001593        0.19      0.19      0.21      0.16         0.01
  YS02001593YS02001596        0.20      0.20      0.30      0.01         0.01
  YS02001596YS02001600        0.33      0.33      0.40      0.01         0.01
  YS02001600YS02001601        0.45      0.45      0.70      0.01         0.01
  YS02001601YS02001602        0.60      0.60      0.74      0.41         0.01
  YS02001602YS02001605        0.56      0.56      0.60      1.55         0.01
  YS02001605YS02001607        0.52      0.56      0.52      0.65         0.52
  YS02001607YS02001610        0.13      0.13      0.16      0.01         0.01
  YS02001610YS02001613        0.12      0.12      0.16      0.01         0.01
  YS02001613YS02001616        0.06      0.06      0.12      0.01         0.01
  YS02001616YS02001619        0.05      0.05      0.06      0.01         0.01
  YS02001619YS02001622        0.03      0.05      0.03      0.20         0.03
  YS02001622YS02001625        0.03      0.03      0.26      0.01         0.01
  YS02001625YS02001629        0.01      0.01      0.26      0.01         0.01
  YS02001629YS02163301        0.25      0.25      0.26      0.07         0.06
  YS02001633YS02163601        0.28      0.28      0.32      0.13         0.13
  YS02001641YS02001644        0.11      0.18      0.11      0.73         0.11
  YS02001644YS02001647        0.01      0.01      0.11      0.01         0.01
  YS02001757CaochengTiaoxuchi        0.01      0.01      2.72      0.01         0.01
  YS02001770YS02001767        0.01      0.01      0.01      0.04         0.01
  YS02001783YS02001784        0.01      0.01      0.01      0.19         0.01
  YS02001784YS02001785        0.01      0.01      0.01      0.38         0.01
  YS02001786YS02001788        0.01      0.01      0.01      0.28         0.01
  YS02001793JiankangQianchi        0.01      0.01      0.35      0.01         0.01
  YS02001904YS02001907        0.01      0.01      0.27      0.01         0.01
  YS02001907YS02006553        0.39      0.39      0.44      0.01         0.01
  YS02001910YS02001907        0.01      0.01      0.26      0.01         0.01
  YS02006553YS02006556        0.16      0.16      0.27      0.01         0.01
  YS02006556YS02006558        0.22      0.22      0.29      0.01         0.01
  YS02006558YS02006561        0.01      0.15      0.01      0.35         0.01
  YS02163301YS02001633        0.26      0.26      0.30      0.01         0.01
  YS02163601YS02164001        0.19      0.19      0.32      0.01         0.01
  YS02164001YS02001641        0.18      0.19      0.18      0.31         0.18
  YSB1154YSB6556              0.18      0.18      0.29      0.01         0.01
  YSB1171HS02004479           0.01      0.01      0.29      0.01         0.01
  YSB1174YSB1171              0.24      0.24      0.45      0.01         0.01
  YSB6556YSB1171              0.18      0.18      0.57      0.01         0.01
  
  
  ***************
  Pumping Summary
  ***************
  
  ---------------------------------------------------------------------------------------------------------
                                                  Min       Avg       Max     Total     Power    % Time Off
                        Percent   Number of      Flow      Flow      Flow    Volume     Usage    Pump Curve
  Pump                 Utilized   Start-Ups       LPS       LPS       LPS  10^6 ltr     Kw-hr    Low   High
  ---------------------------------------------------------------------------------------------------------
  CC-R1                    0.00           0      0.00      0.00      0.00     0.000      0.00    0.0    0.0
  CC-R2                    0.00           0      0.00      0.00      0.00     0.000      0.00    0.0    0.0
  CC-S1                   52.88           2      0.00    200.00    200.00     2.284     12.82    0.0    0.0
  CC-S2                   52.88           2      0.00    200.00    200.00     2.284     12.82    0.0    0.0
  JK-R1                   88.87           4      0.00    115.66   1000.00     1.255      4.81    0.0    0.0
  JK-R2                   30.62           5      0.00    276.34   1000.00     0.932      3.55    0.0    0.0
  JK-S                    30.65           4      0.00    119.14    300.00     0.385      7.48    0.0    0.0
  XR-1                    97.20           1      0.00     95.00     95.00     1.995      8.82    0.0    0.0
  XR-2                    91.96           1      0.00     95.00     95.00     1.887      7.99    0.0    0.0
  XR-3                     0.00           0      0.00      0.00      0.00     0.000      0.00    0.0    0.0
  XR-4                     0.00           0      0.00      0.00      0.00     0.000      0.00    0.0    0.0
  

  Analysis begun on:  Sat Aug 27 11:16:32 2022
  Analysis ended on:  Sat Aug 27 11:16:35 2022
  Total elapsed time: 00:00:03