
  OWA STORM WATER MANAGEMENT MODEL - VERSION v5.1.14 (OWA 2022-07-31)
  --------------------------------------------------------------

  WARNING 04: minimum elevation drop used for Conduit WS02004404WS02004405
  WARNING 03: negative offset ignored for Link YS02001904YS02001907
  
  *********************************************************
  NOTE: The summary statistics displayed in this report are
  based on results found at every computational time step,  
  not just on results from each reporting time step.
  *********************************************************
  
  ****************
  Analysis Options
  ****************
  Flow Units ............... LPS
  Process Models:
    Rainfall/Runoff ........ YES
    RDII ................... NO
    Snowmelt ............... NO
    Groundwater ............ NO
    Flow Routing ........... YES
    Ponding Allowed ........ NO
    Water Quality .......... NO
  Infiltration Method ...... HORTON
  Flow Routing Method ...... DYNWAVE
  Surcharge Method ......... EXTRAN
  Starting Date ............ 01/01/2000 00:00:00
  Ending Date .............. 01/01/2000 06:00:00
  Antecedent Dry Days ...... 8.0
  Report Time Step ......... 00:01:00
  Wet Time Step ............ 00:01:00
  Dry Time Step ............ 00:01:00
  Routing Time Step ........ 30.00 sec
  Variable Time Step ....... YES
  Maximum Trials ........... 8
  Number of Threads ........ 4
  Head Tolerance ........... 0.001500 m
  
  
  **************************        Volume         Depth
  Runoff Quantity Continuity     hectare-m            mm
  **************************     ---------       -------
  Total Precipitation ......         1.870        30.872
  Evaporation Loss .........         0.000         0.000
  Infiltration Loss ........         0.200         3.310
  Surface Runoff ...........         1.607        26.520
  Final Storage ............         0.064         1.054
  Continuity Error (%) .....        -0.037
  
  
  **************************        Volume        Volume
  Flow Routing Continuity        hectare-m      10^6 ltr
  **************************     ---------     ---------
  Dry Weather Inflow .......         0.472         4.722
  Wet Weather Inflow .......         1.607        16.070
  Groundwater Inflow .......         0.000         0.000
  RDII Inflow ..............         0.000         0.000
  External Inflow ..........         0.078         0.784
  External Outflow .........         1.765        17.648
  Flooding Loss ............         0.505         5.053
  Evaporation Loss .........         0.000         0.000
  Exfiltration Loss ........         0.000         0.000
  Initial Stored Volume ....         0.303         3.031
  Final Stored Volume ......         0.288         2.877
  Continuity Error (%) .....        -3.950
  
  
  *************************
  Highest Continuity Errors
  *************************
  Node JK-storage (-30.68%)
  Node YS02001583 (-11.19%)
  Node YS02001884 (5.49%)
  Node HS02004842 (2.26%)
  Node HS02004817 (1.94%)
  
  
  ***************************
  Time-Step Critical Elements
  ***************************
  Link WS02006252WS02006251 (44.08%)
  Link WS02006280WS02006229 (30.80%)
  Link WS02004404WS02004405 (4.41%)
  Link WS02006238WS02006235 (4.26%)
  Link YS02001793JiankangQianchi (3.46%)
  
  
  ********************************
  Highest Flow Instability Indexes
  ********************************
  Link WS02006113WS02006111 (34)
  Link WS02006111WS02006112 (14)
  Link WS02006252WS02006251 (13)
  Link WS02006238WS02006235 (13)
  Link WS02006229WS02006228 (12)
  
  
  *************************
  Routing Time Step Summary
  *************************
  Minimum Time Step           :     0.50 sec
  Average Time Step           :     1.77 sec
  Maximum Time Step           :    30.00 sec
  Percent in Steady State     :    -0.00
  Average Iterations per Step :     2.88
  Percent Not Converging      :     9.03
  
  
  ***************************
  Subcatchment Runoff Summary
  ***************************
  
  ------------------------------------------------------------------------------------------------------------------------------
                            Total      Total      Total      Total     Imperv       Perv      Total       Total     Peak  Runoff
                           Precip      Runon       Evap      Infil     Runoff     Runoff     Runoff      Runoff   Runoff   Coeff
  Subcatchment                 mm         mm         mm         mm         mm         mm         mm    10^6 ltr      LPS
  ------------------------------------------------------------------------------------------------------------------------------
  sub0                      30.87       0.00       0.00       0.86      27.45       1.31      28.76        0.02    21.28   0.932
  sub1                      30.87       0.00       0.00       1.44      26.19       1.96      28.14        0.19   126.70   0.912
  sub10                     30.87       0.00       0.00       1.02      27.08       1.45      28.53        0.31   223.10   0.924
  sub11                     30.87       0.00       0.00       1.00      27.11       1.47      28.58        0.33   258.60   0.926
  sub12                     30.87       0.00       0.00       1.63      25.67       2.38      28.05        0.25   212.69   0.909
  sub14                     30.87       0.00       0.00       1.14      26.80       1.64      28.44        0.27   201.36   0.921
  sub15                     30.87       0.00       0.00       4.45      20.61       4.82      25.43        0.44   280.98   0.824
  sub16                     30.87       0.00       0.00       4.61      19.76       5.58      25.35        0.27   197.20   0.821
  sub17                     30.87       0.00       0.00       4.49      20.05       5.39      25.44        0.22   159.92   0.824
  sub2                      30.87       0.00       0.00       6.26      18.50       5.16      23.66        0.22   112.62   0.767
  sub22                     30.87       0.00       0.00       6.71      16.80       6.56      23.36        1.48   923.25   0.757
  sub23                     30.87       0.00       0.00       5.49      18.57       5.93      24.50        1.17   783.11   0.794
  sub3                      30.87       0.00       0.00       6.71      18.44       4.71      23.15        0.52   234.41   0.750
  sub4                      30.87       0.00       0.00       1.60      25.92       1.80      27.72        0.58   263.83   0.898
  sub5                      30.87       0.00       0.00       0.89      27.36       1.27      28.64        0.32   222.93   0.928
  sub60                     30.87       0.00       0.00       1.54      25.94       2.17      28.11        0.37   290.51   0.911
  sub61                     30.87       0.00       0.00       2.22      24.47       3.03      27.50        0.50   397.13   0.891
  sub62                     30.87       0.00       0.00       1.02      27.07       1.45      28.52        0.78   539.97   0.924
  sub63                     30.87       0.00       0.00       4.09      20.93       4.87      25.80        0.59   418.59   0.836
  sub64                     30.87       0.00       0.00       2.07      24.98       2.57      27.55        0.66   407.48   0.892
  sub65                     30.87       0.00       0.00       1.79      25.54       2.23      27.77        0.76   442.69   0.899
  sub66                     30.87       0.00       0.00       4.97      20.76       3.98      24.74        1.15   529.88   0.801
  sub67                     30.87       0.00       0.00       0.99      27.14       1.48      28.62        0.53   458.62   0.927
  sub68                     30.87       0.00       0.00       1.84      25.33       2.49      27.82        0.77   558.45   0.901
  sub69                     30.87       0.00       0.00       1.55      26.06       3.08      29.14        1.08   618.86   0.944
  sub7                      30.87       0.00       0.00       1.13      26.83       1.65      28.48        0.10    77.44   0.922
  sub70                     30.87       0.00       0.00       5.14      20.11       5.36      25.47        0.74   307.65   0.825
  sub71                     30.87       0.00       0.00       1.05      27.00       1.42      28.43        0.74   438.13   0.921
  sub72                     30.87       0.00       0.00       0.93      27.20       1.23      28.43        0.39   198.29   0.921
  sub8                      30.87       0.00       0.00       1.14      26.81       1.64      28.45        0.18   138.51   0.922
  sub9                      30.87       0.00       0.00       1.14      26.81       1.64      28.44        0.14   102.88   0.921
  
  
  ******************
  Node Depth Summary
  ******************
  
  ---------------------------------------------------------------------------------
                                 Average  Maximum  Maximum  Time of Max    Reported
                                   Depth    Depth      HGL   Occurrence   Max Depth
  Node                 Type       Meters   Meters   Meters  days hr:min      Meters
  ---------------------------------------------------------------------------------
  HS02004478           JUNCTION     0.14     1.54    10.76     0  01:46        1.36
  HS02004479           JUNCTION     0.21     1.69    10.89     0  01:46        1.60
  HS02004480           JUNCTION     0.18     1.66    10.90     0  01:46        1.55
  HS02004770           JUNCTION     0.19     1.42    11.25     0  01:43        1.42
  HS02004777           JUNCTION     0.21     1.48    11.28     0  01:43        1.44
  HS02004785           JUNCTION     0.12     1.49    11.39     0  01:43        1.32
  HS02004788           JUNCTION     0.10     1.42    11.32     0  01:43        1.31
  HS02004792           JUNCTION     0.14     1.60    11.12     0  01:43        1.60
  HS02004799           JUNCTION     0.24     1.76    10.97     0  01:44        1.72
  HS02004802           JUNCTION     0.22     1.73    10.86     0  01:46        1.46
  HS02004807           JUNCTION     0.20     1.92    11.09     0  01:46        1.43
  HS02004817           JUNCTION     0.50     2.44    11.29     0  01:46        1.75
  HS02004824           JUNCTION     0.10     2.01    11.41     0  01:46        1.20
  HS02004830           JUNCTION     0.10     2.03    11.50     0  01:46        1.14
  HS02004837           JUNCTION     0.08     2.04    11.62     0  01:46        1.01
  HS02004842           JUNCTION     0.38     2.22    11.49     0  01:46        1.30
  HS02004848           JUNCTION     0.06     2.07    11.67     0  01:46        0.96
  HS02004852           JUNCTION     0.06     2.12    11.63     0  01:46        1.01
  HS02004856           JUNCTION     0.11     2.07    11.50     0  01:46        1.05
  HS02004862           JUNCTION     0.08     2.00    11.38     0  01:46        1.04
  HS02004870           JUNCTION     0.07     2.02    11.30     0  01:46        1.07
  HS02004876           JUNCTION     0.11     2.26    11.29     0  01:46        1.26
  HS02004881           JUNCTION     0.07     1.86    10.89     0  01:46        1.17
  HS02004901           JUNCTION     0.19     1.42    11.24     0  01:43        1.42
  WS02001211           JUNCTION     0.64     0.85     5.68     0  01:50        0.84
  WS02001212           JUNCTION     0.37     0.61     5.68     0  01:49        0.57
  WS02001213           JUNCTION     0.59     0.92     5.69     0  01:49        0.92
  WS02003059           JUNCTION     0.65     0.95     5.64     0  01:51        0.94
  WS02003060           JUNCTION     0.36     0.68     5.61     0  01:52        0.68
  WS02003066           JUNCTION     0.21     0.46     6.01     0  01:44        0.45
  WS02003067           JUNCTION     0.51     0.95     6.27     0  01:43        0.95
  WS02003069           JUNCTION     0.41     0.77     5.35     0  01:52        0.76
  WS02003072           JUNCTION     0.47     0.80     5.17     0  01:51        0.80
  WS02003073           JUNCTION     0.28     0.51     4.57     0  01:52        0.51
  WS02004138           JUNCTION     0.14     0.14     7.39     0  00:29        0.14
  WS02004139           JUNCTION     0.57     0.76     5.67     0  01:49        0.76
  WS02004401           JUNCTION     0.71     2.20     8.20     0  01:42        1.83
  WS02004402           JUNCTION     0.74     2.19     8.15     0  01:42        1.68
  WS02004403           JUNCTION     0.75     2.12     8.05     0  01:42        1.62
  WS02004404           JUNCTION     0.82     2.08     7.93     0  01:42        1.63
  WS02004405           JUNCTION     0.81     1.97     7.82     0  01:42        1.58
  WS02004406           JUNCTION     0.81     1.81     7.64     0  01:42        1.49
  WS02004407           JUNCTION     0.23     0.85     7.16     0  01:45        0.85
  WS02004409           JUNCTION     0.48     1.34     7.11     0  01:45        1.33
  WS02004410           JUNCTION     0.49     1.29     7.01     0  01:43        1.25
  WS02004411           JUNCTION     0.50     1.42     7.10     0  01:43        1.17
  WS02004412           JUNCTION     0.51     1.24     6.88     0  01:43        1.08
  WS02004413           JUNCTION     0.66     1.40     6.87     0  01:43        1.13
  WS02006109           JUNCTION     0.87     2.64     9.26     0  01:41        2.64
  WS02006110           JUNCTION     0.83     2.76     9.34     0  01:41        2.74
  WS02006111           JUNCTION     0.34     2.41     9.11     0  01:41        2.21
  WS02006112           JUNCTION     0.91     2.68     8.56     0  00:00        2.68
  WS02006113           JUNCTION     0.42     2.73     9.62     0  01:41        2.47
  WS02006115           JUNCTION     0.62     2.25     8.39     0  01:42        2.24
  WS02006116           JUNCTION     0.70     2.21     8.25     0  01:42        2.08
  WS02006228           JUNCTION     0.91     3.02     9.67     0  01:46        2.96
  WS02006229           JUNCTION     0.90     3.21     9.91     0  01:46        3.13
  WS02006230           JUNCTION     0.85     2.65     9.39     0  01:42        2.65
  WS02006231           JUNCTION     0.61     2.19     9.32     0  01:42        2.18
  WS02006232           JUNCTION     0.71     2.18     9.22     0  01:42        2.18
  WS02006234           JUNCTION     0.61     1.96     9.12     0  01:40        1.96
  WS02006235           JUNCTION     0.63     2.00     9.16     0  01:40        1.92
  WS02006238           JUNCTION     0.65     2.02     9.16     0  01:40        1.93
  WS02006239           JUNCTION     0.60     2.03     9.24     0  01:40        1.78
  WS02006240           JUNCTION     0.56     2.10     9.39     0  01:40        1.62
  WS02006242           JUNCTION     0.61     1.55     8.82     0  01:40        1.55
  WS02006243           JUNCTION     0.51     1.48     8.90     0  01:40        1.36
  WS02006245           JUNCTION     0.50     1.56     9.04     0  01:40        1.27
  WS02006247           JUNCTION     0.51     1.47     8.97     0  01:40        1.22
  WS02006248           JUNCTION     0.46     1.10     8.69     0  01:41        1.10
  WS02006249           JUNCTION     0.49     1.09     8.69     0  01:41        1.09
  WS02006251           JUNCTION     0.55     2.21     9.88     0  01:41        2.04
  WS02006252           JUNCTION     0.39     1.50     9.74     0  01:41        1.50
  WS02006253           JUNCTION     0.60     3.52    11.16     0  01:41        2.52
  WS02006256           JUNCTION     0.91     2.35     9.28     0  00:46        2.35
  WS02006280           JUNCTION     0.19     1.79    10.06     0  01:42        1.63
  WS02006284           JUNCTION     0.47     1.92    10.32     0  01:46        1.78
  WS02006287           JUNCTION     0.19     1.70    10.65     0  01:46        1.52
  WSF200               JUNCTION     0.20     0.54     5.78     0  01:44        0.51
  YS02001580           JUNCTION     0.05     1.05     9.59     0  01:44        0.76
  YS02001583           JUNCTION     0.07     1.14     9.64     0  01:44        0.81
  YS02001586           JUNCTION     0.13     1.13     9.30     0  01:44        1.13
  YS02001590           JUNCTION     0.21     1.40     9.26     0  01:44        1.36
  YS02001593           JUNCTION     0.15     1.46     9.32     0  01:44        1.28
  YS02001596           JUNCTION     0.21     1.80     9.22     0  01:44        1.64
  YS02001600           JUNCTION     0.26     1.87     9.00     0  01:43        1.86
  YS02001601           JUNCTION     0.42     2.06     8.90     0  01:42        2.06
  YS02001602           JUNCTION     0.35     1.87     8.77     0  01:44        1.87
  YS02001605           JUNCTION     0.32     1.78     8.68     0  01:44        1.77
  YS02001607           JUNCTION     0.30     1.68     8.53     0  01:44        1.64
  YS02001610           JUNCTION     0.33     1.68     8.48     0  01:44        1.68
  YS02001613           JUNCTION     0.30     1.70     8.54     0  01:44        1.64
  YS02001616           JUNCTION     0.25     1.61     8.52     0  01:44        1.57
  YS02001619           JUNCTION     0.24     1.61     8.54     0  01:45        1.56
  YS02001622           JUNCTION     0.22     1.59     8.49     0  01:45        1.54
  YS02001625           JUNCTION     0.39     1.78     8.38     0  01:45        1.78
  YS02001629           JUNCTION     0.30     1.85     8.40     0  01:44        1.85
  YS02001633           JUNCTION     0.37     1.86     8.31     0  01:50        1.84
  YS02001641           JUNCTION     0.35     1.66     8.09     0  01:50        1.64
  YS02001644           JUNCTION     0.34     1.59     8.03     0  01:50        1.56
  YS02001647           JUNCTION     0.18     1.28     7.89     0  01:50        1.24
  YS02001649           JUNCTION     0.21     1.35     7.74     0  01:50        1.31
  YS02001652           JUNCTION     0.13     1.27     7.86     0  01:54        1.13
  YS02001655           JUNCTION     0.10     0.92     7.77     0  01:49        0.90
  YS02001658           JUNCTION     0.06     0.59     7.73     0  01:49        0.57
  YS02001661           JUNCTION     0.10     0.35     7.75     0  01:45        0.34
  YS02001664           JUNCTION     0.04     0.24     8.17     0  01:45        0.24
  YS02001745           JUNCTION     0.04     0.23     7.74     0  01:45        0.23
  YS02001748           JUNCTION     0.06     0.49     7.57     0  01:50        0.49
  YS02001751           JUNCTION     0.08     0.71     7.59     0  01:50        0.65
  YS02001754           JUNCTION     0.11     0.96     7.57     0  01:51        0.93
  YS02001757           JUNCTION     0.22     1.31     7.57     0  01:50        1.25
  YS02001759           JUNCTION     0.18     1.24     7.60     0  01:50        1.18
  YS02001762           JUNCTION     0.18     1.21     7.61     0  01:50        1.15
  YS02001765           JUNCTION     0.16     1.21     7.66     0  01:48        1.11
  YS02001767           JUNCTION     0.16     1.21     7.70     0  01:48        1.09
  YS02001770           JUNCTION     0.18     1.24     7.73     0  01:48        1.10
  YS02001774           JUNCTION     0.22     1.26     7.68     0  01:48        1.18
  YS02001779           JUNCTION     0.09     0.95     7.63     0  01:50        0.92
  YS02001783           JUNCTION     0.17     1.85     7.99     0  01:46        1.46
  YS02001784           JUNCTION     0.19     1.78     7.85     0  01:46        1.41
  YS02001786           JUNCTION     0.17     1.62     7.65     0  01:46        1.25
  YS02001788           JUNCTION     0.12     1.77     7.75     0  01:46        1.12
  YS02001790           JUNCTION     0.15     1.96     7.60     0  02:07        1.29
  YS02001791           JUNCTION     0.11     2.17     7.64     0  01:46        1.27
  YS02001793           JUNCTION     0.10     2.13     6.96     0  01:46        1.80
  YS02001882           JUNCTION     0.20     1.70     8.41     0  01:46        1.58
  YS02001884           JUNCTION     0.27     1.78     8.40     0  01:46        1.68
  YS02001887           JUNCTION     0.35     1.83     8.37     0  01:46        1.77
  YS02001890           JUNCTION     0.38     1.81     8.32     0  01:46        1.81
  YS02001895           JUNCTION     0.18     1.58     8.32     0  01:46        1.54
  YS02001898           JUNCTION     0.19     1.58     8.32     0  01:46        1.53
  YS02001901           JUNCTION     0.26     1.69     8.30     0  01:46        1.65
  YS02001904           JUNCTION     0.25     1.64     8.27     0  01:46        1.63
  YS02001907           JUNCTION     0.54     1.96     8.25     0  01:46        1.96
  YS02001910           JUNCTION     0.34     2.01     8.51     0  01:47        1.80
  YS02001915           JUNCTION     0.21     1.96     8.67     0  01:47        1.64
  YS02001918           JUNCTION     0.11     1.81     8.88     0  01:47        1.35
  YS02001920           JUNCTION     0.19     2.14     9.15     0  01:47        1.43
  YS02001923           JUNCTION     0.08     2.03     9.29     0  01:47        1.20
  YS02001926           JUNCTION     0.12     1.90     9.35     0  01:47        1.09
  YS02001929           JUNCTION     0.06     1.78     9.47     0  01:47        0.94
  YS02006553           JUNCTION     0.54     2.10     8.39     0  01:46        1.96
  YS02006556           JUNCTION     0.51     2.23     8.54     0  01:46        1.92
  YS02006558           JUNCTION     0.56     2.29     8.56     0  01:46        1.95
  YS02006561           JUNCTION     0.10     1.60     8.26     0  01:46        1.07
  YS02163301           JUNCTION     0.32     1.89     8.41     0  01:45        1.81
  YS02163601           JUNCTION     0.40     1.81     8.21     0  01:50        1.79
  YS02164001           JUNCTION     0.33     1.69     8.15     0  01:50        1.66
  YSB1154              JUNCTION     0.32     1.95    11.01     0  01:44        1.82
  YSB1171              JUNCTION     0.49     1.95    10.85     0  01:43        1.95
  YSB1174              JUNCTION     0.29     1.81    10.92     0  01:44        1.75
  YSB6556              JUNCTION     0.24     1.79    10.96     0  01:44        1.69
  CC-1                 OUTFALL      0.00     0.00     0.00     0  00:00        0.00
  CC-2                 OUTFALL      0.00     0.00     0.00     0  00:00        0.00
  JK-1                 OUTFALL      0.00     0.00     0.00     0  00:00        0.00
  JK-2                 OUTFALL      0.00     0.00     0.00     0  00:00        0.00
  WSC                  OUTFALL      0.28     0.51     1.18     0  01:52        0.51
  CC-storage           STORAGE      0.68     1.42     6.92     0  02:04        1.42
  JK-storage           STORAGE      2.61     5.80     6.60     0  01:46        5.80
  XR-storage           STORAGE      7.54     8.66     6.66     0  06:00        8.66
  
  
  *******************
  Node Inflow Summary
  *******************
  
  -------------------------------------------------------------------------------------------------
                                  Maximum  Maximum                  Lateral       Total        Flow
                                  Lateral    Total  Time of Max      Inflow      Inflow     Balance
                                   Inflow   Inflow   Occurrence      Volume      Volume       Error
  Node                 Type           LPS      LPS  days hr:min    10^6 ltr    10^6 ltr     Percent
  -------------------------------------------------------------------------------------------------
  HS02004478           JUNCTION      0.00  2199.36     0  01:44           0        4.99      -0.021
  HS02004479           JUNCTION      0.00   443.28     0  01:44           0       0.578       0.154
  HS02004480           JUNCTION      0.00  2202.13     0  01:44           0        3.98       0.065
  HS02004770           JUNCTION    783.11   842.92     0  01:43        1.17        1.36       0.251
  HS02004777           JUNCTION      0.03   830.14     0  01:43    0.000648        1.23       0.444
  HS02004785           JUNCTION      0.15   845.17     0  01:43     0.00324        1.22       0.037
  HS02004788           JUNCTION    282.65  1047.51     0  01:43       0.474        1.69      -0.012
  HS02004792           JUNCTION    923.53  1630.28     0  01:45        1.48        3.17       0.012
  HS02004799           JUNCTION    201.36  1800.80     0  01:44       0.271        3.41       0.081
  HS02004802           JUNCTION      0.00   342.63     0  02:07           0        1.05       0.388
  HS02004807           JUNCTION    258.60   527.58     0  01:44       0.332        1.11       0.383
  HS02004817           JUNCTION      0.60   528.75     0  01:44       0.013       0.847       1.980
  HS02004824           JUNCTION    263.88   748.82     0  01:44       0.579        1.01       0.044
  HS02004830           JUNCTION      0.15   750.13     0  01:44     0.00324       0.616       0.182
  HS02004837           JUNCTION    229.45   999.23     0  01:44       0.452        0.82       0.118
  HS02004842           JUNCTION      0.00   925.27     0  01:44           0       0.574       2.310
  HS02004848           JUNCTION    234.41  1138.24     0  01:44       0.521       0.974       0.004
  HS02004852           JUNCTION      0.00  1094.26     0  01:45           0       0.865       0.041
  HS02004856           JUNCTION    102.88  1128.21     0  01:45       0.137           1       0.116
  HS02004862           JUNCTION    112.82  1224.41     0  01:45       0.225        1.23      -0.034
  HS02004870           JUNCTION    138.51  1361.90     0  01:45       0.182        1.41       0.024
  HS02004876           JUNCTION    126.70  1458.74     0  01:46       0.187        1.59       0.066
  HS02004881           JUNCTION     77.44  1404.44     0  01:46       0.096        1.69      -0.035
  HS02004901           JUNCTION    197.20   387.57     0  01:49       0.265       0.323       0.568
  WS02001211           JUNCTION      7.35   319.60     0  01:48       0.159        4.02       0.825
  WS02001212           JUNCTION      0.00   326.19     0  01:45           0        3.99       0.394
  WS02001213           JUNCTION      0.00   297.54     0  01:50           0        3.99       0.446
  WS02003059           JUNCTION      0.00   338.70     0  01:44           0        3.99       0.807
  WS02003060           JUNCTION     16.53  1502.69     0  01:51       0.357        10.5       0.147
  WS02003066           JUNCTION      0.00  1265.21     0  01:46           0        6.17       0.026
  WS02003067           JUNCTION      0.00  1249.83     0  01:46           0        6.18       0.076
  WS02003069           JUNCTION      0.32  1471.96     0  01:52     0.00691        10.4       0.154
  WS02003072           JUNCTION      0.00  1464.71     0  01:52           0        10.4       0.207
  WS02003073           JUNCTION      1.82  1468.62     0  01:51      0.0393        10.4       0.217
  WS02004138           JUNCTION      0.00   190.00     0  00:29           0        3.88       0.084
  WS02004139           JUNCTION      0.32   263.71     0  01:47     0.00693        3.89       0.688
  WS02004401           JUNCTION      0.00  1272.68     0  01:44           0         6.3       0.192
  WS02004402           JUNCTION      0.00  1273.94     0  01:44           0        6.29       0.184
  WS02004403           JUNCTION      0.00  1274.95     0  01:44           0        6.28       0.179
  WS02004404           JUNCTION      0.16  1275.62     0  01:44      0.0035        6.27       0.145
  WS02004405           JUNCTION      0.04  1278.44     0  01:44    0.000823        6.26       0.207
  WS02004406           JUNCTION      0.00  1279.77     0  01:44           0        6.25       0.357
  WS02004407           JUNCTION      0.00  1280.00     0  01:44           0        6.22       0.029
  WS02004409           JUNCTION      0.00  1249.86     0  01:46           0        6.22       0.062
  WS02004410           JUNCTION      0.00  1249.95     0  01:46           0        6.21       0.085
  WS02004411           JUNCTION      0.00  1250.17     0  01:46           0        6.21       0.108
  WS02004412           JUNCTION      0.00  1250.01     0  01:46           0         6.2       0.135
  WS02004413           JUNCTION      0.00  1249.99     0  01:46           0        6.19       0.231
  WS02006109           JUNCTION      1.23  1308.01     0  00:00      0.0266         6.1       0.190
  WS02006110           JUNCTION      0.00  1190.98     0  01:41           0        6.03      -0.579
  WS02006111           JUNCTION      0.00  1176.04     0  00:00           0        6.06      -0.630
  WS02006112           JUNCTION    159.92  2307.30     0  00:00       0.218        6.32      -0.003
  WS02006113           JUNCTION      0.00  1191.13     0  01:41           0        6.03      -0.741
  WS02006115           JUNCTION      0.00  2152.75     0  00:00           0         6.3       0.079
  WS02006116           JUNCTION      0.00  1272.83     0  01:44           0         6.3       0.021
  WS02006228           JUNCTION      0.00  1205.88     0  01:47           0        6.06       0.111
  WS02006229           JUNCTION      0.00  2139.24     0  01:47           0        7.12       0.115
  WS02006230           JUNCTION     10.28   945.61     0  01:47       0.222        3.25       0.062
  WS02006231           JUNCTION      0.00   461.65     0  02:40           0        2.66      -0.031
  WS02006232           JUNCTION      0.00   460.13     0  02:40           0        2.66       0.246
  WS02006234           JUNCTION      0.00   456.30     0  02:40           0        2.66      -0.130
  WS02006235           JUNCTION      0.00   453.64     0  02:40           0        2.69       0.149
  WS02006238           JUNCTION      0.00   416.15     0  01:51           0         2.4      -0.076
  WS02006239           JUNCTION      0.00   415.50     0  01:51           0        2.38      -0.068
  WS02006240           JUNCTION      0.00   415.02     0  01:51           0        2.36      -0.031
  WS02006242           JUNCTION      0.00   415.24     0  01:51           0        2.34       0.050
  WS02006243           JUNCTION      0.00   398.77     0  03:00           0        2.14      -0.038
  WS02006245           JUNCTION      0.00   398.82     0  03:00           0        2.13       0.152
  WS02006247           JUNCTION      0.00   398.84     0  03:00           0        2.13       0.012
  WS02006248           JUNCTION      0.00   413.85     0  01:40           0        2.27       0.027
  WS02006249           JUNCTION      0.00  1325.68     0  01:46           0        4.11       0.037
  WS02006251           JUNCTION      0.08  1325.21     0  01:46     0.00166        4.12      -0.015
  WS02006252           JUNCTION      0.00   400.00     0  02:00           0         2.4      -0.025
  WS02006253           JUNCTION     21.28  1308.80     0  01:46      0.0233        1.72       0.027
  WS02006256           JUNCTION      0.00   300.00     0  01:50           0       0.711       0.061
  WS02006280           JUNCTION      0.00  2137.84     0  01:47           0        4.96      -0.002
  WS02006284           JUNCTION      0.10  2138.03     0  01:47     0.00207        4.96       0.018
  WS02006287           JUNCTION      0.00  2136.85     0  01:47           0        4.96       0.030
  WSF200               JUNCTION      0.00  1261.34     0  01:46           0        6.17       0.015
  YS02001580           JUNCTION      0.00   175.65     0  01:44           0     0.00442      -6.002
  YS02001583           JUNCTION      0.00   267.87     0  01:44           0      0.0147     -10.061
  YS02001586           JUNCTION    307.65   307.76     0  01:50       0.736       0.748       0.251
  YS02001590           JUNCTION      0.00   307.80     0  01:50           0       0.732      -0.010
  YS02001593           JUNCTION      0.00   307.67     0  01:50           0       0.732      -0.008
  YS02001596           JUNCTION      0.00   307.77     0  01:50           0       0.732      -0.016
  YS02001600           JUNCTION      0.00   308.03     0  01:50           0       0.732       0.025
  YS02001601           JUNCTION    618.86   907.67     0  01:45        1.08        1.81       0.068
  YS02001602           JUNCTION      0.00   593.32     0  01:44           0        1.47       0.044
  YS02001605           JUNCTION      0.00   593.32     0  01:44           0        1.44       0.056
  YS02001607           JUNCTION      0.00   593.11     0  01:44           0        1.44       0.142
  YS02001610           JUNCTION      0.00   570.31     0  01:44           0        1.44       0.185
  YS02001613           JUNCTION      0.00   542.08     0  01:44           0        1.42       0.143
  YS02001616           JUNCTION      0.00   501.84     0  01:44           0        1.42       0.053
  YS02001619           JUNCTION    529.88   902.31     0  01:46        1.15        2.57       0.007
  YS02001622           JUNCTION      0.00   902.76     0  01:46           0        2.57       0.017
  YS02001625           JUNCTION      0.00   903.49     0  01:46           0        2.57       0.417
  YS02001629           JUNCTION      0.00   903.98     0  01:46           0        2.56      -0.009
  YS02001633           JUNCTION    442.89  1336.44     0  01:46       0.769        3.33       0.120
  YS02001641           JUNCTION      0.00  1337.27     0  01:46           0        3.33       0.099
  YS02001644           JUNCTION    407.52  1732.57     0  01:46       0.663        3.98       0.096
  YS02001647           JUNCTION      0.00  1733.13     0  01:46           0        3.97       0.017
  YS02001649           JUNCTION      0.00  2115.59     0  01:46           0        4.56       0.014
  YS02001652           JUNCTION      0.00   466.59     0  01:46           0       0.587      -0.512
  YS02001655           JUNCTION      0.15   474.48     0  01:51     0.00332       0.589       0.288
  YS02001658           JUNCTION      0.00   417.66     0  01:45           0       0.586       0.002
  YS02001661           JUNCTION      0.00   417.27     0  01:45           0       0.586       0.044
  YS02001664           JUNCTION    418.59   418.59     0  01:45       0.586       0.586      -0.001
  YS02001745           JUNCTION    290.52   290.52     0  01:45        0.37        0.37       0.271
  YS02001748           JUNCTION      0.04   289.65     0  01:45    0.000972        0.37      -0.350
  YS02001751           JUNCTION      0.01   315.92     0  01:50    0.000238       0.371       0.437
  YS02001754           JUNCTION      0.26   344.82     0  01:51     0.00562       0.375      -0.594
  YS02001757           JUNCTION      0.00  2825.84     0  01:50           0        6.24       0.125
  YS02001759           JUNCTION    397.17   819.04     0  01:49       0.506         1.3      -0.009
  YS02001762           JUNCTION      0.00   508.83     0  01:49           0       0.795       0.015
  YS02001765           JUNCTION      0.00   504.85     0  01:49           0       0.795       0.029
  YS02001767           JUNCTION      0.54   506.33     0  01:48      0.0116       0.796       0.030
  YS02001770           JUNCTION    540.12   540.12     0  01:45       0.785       0.831       0.017
  YS02001774           JUNCTION      0.00   160.01     0  01:46           0      0.0713       1.501
  YS02001779           JUNCTION      0.01   133.08     0  01:48    0.000108      0.0244      -0.499
  YS02001783           JUNCTION      0.00  1136.25     0  01:53           0        2.35       0.008
  YS02001784           JUNCTION      1.06  1137.57     0  01:52      0.0229        2.38       0.021
  YS02001786           JUNCTION      0.06  1137.21     0  01:53     0.00122        2.38       0.005
  YS02001788           JUNCTION      0.07  1137.12     0  01:53     0.00153        2.38       0.020
  YS02001790           JUNCTION      0.15  1194.57     0  01:51     0.00335        2.38      -0.036
  YS02001791           JUNCTION      0.00  1350.68     0  01:51           0        2.38       0.025
  YS02001793           JUNCTION      0.00  1406.99     0  01:51           0        2.38       0.019
  YS02001882           JUNCTION      0.00    69.90     0  01:45           0      0.0129       6.073
  YS02001884           JUNCTION      0.00   117.86     0  01:45           0      0.0489       5.813
  YS02001887           JUNCTION    459.07   459.07     0  01:45       0.542       0.576       0.812
  YS02001890           JUNCTION      0.00   447.86     0  01:45           0       0.534       1.000
  YS02001895           JUNCTION      0.00   449.50     0  01:45           0       0.529       0.381
  YS02001898           JUNCTION      0.00   459.11     0  01:45           0       0.527       0.052
  YS02001901           JUNCTION      0.00   481.99     0  01:45           0       0.532       0.637
  YS02001904           JUNCTION      0.00   485.20     0  01:45           0       0.546       0.556
  YS02001907           JUNCTION      0.00  1182.84     0  01:48           0        1.74       1.048
  YS02001910           JUNCTION      0.00   859.67     0  01:48           0         1.2       0.605
  YS02001915           JUNCTION    438.15   858.13     0  01:48       0.744        1.24       0.125
  YS02001918           JUNCTION      0.00   439.19     0  01:48           0       0.526      -0.039
  YS02001920           JUNCTION      2.87   438.80     0  01:48       0.062       0.502       0.216
  YS02001923           JUNCTION      0.04   469.39     0  01:47    0.000814       0.425      -0.237
  YS02001926           JUNCTION      0.05   676.86     0  01:47     0.00113       0.405      -0.574
  YS02001929           JUNCTION    198.29   448.00     0  01:47       0.391       0.394      -0.091
  YS02006553           JUNCTION      0.00   787.61     0  01:53           0        1.63       0.742
  YS02006556           JUNCTION      0.00   787.40     0  01:53           0        1.65       0.516
  YS02006558           JUNCTION    559.33  1137.57     0  01:51       0.785         2.4       0.157
  YS02006561           JUNCTION      0.00  1136.18     0  01:51           0        2.35       0.003
  YS02163301           JUNCTION      0.00   904.08     0  01:46           0        2.56       0.067
  YS02163601           JUNCTION      0.11  1336.63     0  01:46     0.00238        3.32       0.163
  YS02164001           JUNCTION      0.00  1336.86     0  01:46           0        3.32       0.090
  YSB1154              JUNCTION    222.93   222.93     0  01:45       0.325       0.326       0.457
  YSB1171              JUNCTION      0.00   437.59     0  01:44           0       0.578       1.103
  YSB1174              JUNCTION    212.69   212.69     0  01:45       0.245       0.246       0.536
  YSB6556              JUNCTION      0.00   222.30     0  01:45           0       0.326       0.384
  CC-1                 OUTFALL       0.00   683.00     0  02:00           0        2.46       0.000
  CC-2                 OUTFALL       0.00   683.00     0  02:00           0        2.46       0.000
  JK-1                 OUTFALL       0.00  1000.00     0  01:50           0        1.15       0.000
  JK-2                 OUTFALL       0.00  1000.00     0  01:50           0        1.15       0.000
  WSC                  OUTFALL       0.00  1470.43     0  01:52           0        10.4       0.000
  CC-storage           STORAGE       0.00  2827.95     0  01:50           0        8.46      -0.437
  JK-storage           STORAGE       0.00  1693.25     0  01:51           0        2.53     -23.479
  XR-storage           STORAGE     200.00   200.00     0  00:00        4.32        4.92       0.001
  
  
  **********************
  Node Surcharge Summary
  **********************
  
  Surcharging occurs when water rises above the top of the highest conduit.
  ---------------------------------------------------------------------
                                               Max. Height   Min. Depth
                                   Hours       Above Crown    Below Rim
  Node                 Type      Surcharged         Meters       Meters
  ---------------------------------------------------------------------
  HS02004478           JUNCTION        0.20          0.616        0.324
  HS02004479           JUNCTION        0.31          0.890        0.160
  HS02004480           JUNCTION        0.34          0.950        0.150
  HS02004770           JUNCTION        0.27          0.720        0.000
  HS02004777           JUNCTION        0.28          0.780        0.000
  HS02004785           JUNCTION        0.23          0.790        0.000
  HS02004788           JUNCTION        0.21          0.720        0.000
  HS02004792           JUNCTION        0.31          0.900        0.000
  HS02004799           JUNCTION        0.39          1.060        0.000
  HS02004802           JUNCTION        0.34          1.019        0.191
  HS02004807           JUNCTION        0.33          1.220        0.000
  HS02004817           JUNCTION        0.68          1.740        0.000
  HS02004824           JUNCTION        0.22          1.310        0.000
  HS02004830           JUNCTION        0.20          1.330        0.000
  HS02004837           JUNCTION        0.16          1.340        0.000
  HS02004842           JUNCTION        0.27          1.520        0.000
  HS02004848           JUNCTION        0.12          1.370        0.000
  HS02004852           JUNCTION        0.14          1.420        0.000
  HS02004856           JUNCTION        0.12          1.300        0.000
  HS02004862           JUNCTION        0.16          1.300        0.000
  HS02004870           JUNCTION        0.17          1.315        0.085
  HS02004876           JUNCTION        0.23          1.560        0.000
  HS02004881           JUNCTION        0.20          1.158        0.292
  HS02004901           JUNCTION        0.28          0.720        0.000
  WS02004401           JUNCTION        1.16          1.200        0.460
  WS02004402           JUNCTION        1.17          1.188        0.552
  WS02004403           JUNCTION        1.18          1.118        0.912
  WS02004404           JUNCTION        1.35          1.080        1.700
  WS02004405           JUNCTION        1.31          0.971        1.829
  WS02004406           JUNCTION        1.25          0.811        1.639
  WS02004409           JUNCTION        0.52          0.338        2.022
  WS02004410           JUNCTION        0.50          0.286        2.254
  WS02004411           JUNCTION        0.44          0.421        2.109
  WS02004412           JUNCTION        0.38          0.245        2.065
  WS02004413           JUNCTION        0.73          0.395        1.805
  WS02006109           JUNCTION        1.50          1.820        0.000
  WS02006110           JUNCTION        1.40          1.850        0.000
  WS02006111           JUNCTION        0.66          1.596        0.274
  WS02006112           JUNCTION        1.45          1.680        0.000
  WS02006113           JUNCTION        0.66          1.930        0.000
  WS02006115           JUNCTION        0.92          1.238        1.012
  WS02006116           JUNCTION        0.97          1.151        1.139
  WS02006228           JUNCTION        1.49          2.190        0.010
  WS02006229           JUNCTION        0.46          1.032        0.038
  WS02006230           JUNCTION        1.35          1.570        0.000
  WS02006231           JUNCTION        1.36          1.484        0.046
  WS02006232           JUNCTION        1.41          1.480        0.000
  WS02006234           JUNCTION        1.37          1.240        0.000
  WS02006235           JUNCTION        1.38          1.290        0.000
  WS02006238           JUNCTION        1.38          1.297        0.133
  WS02006239           JUNCTION        1.37          1.290        0.000
  WS02006240           JUNCTION        1.36          1.390        0.000
  WS02006242           JUNCTION        1.36          0.820        0.000
  WS02006243           JUNCTION        1.35          0.770        0.000
  WS02006245           JUNCTION        1.34          0.850        0.000
  WS02006247           JUNCTION        1.34          0.760        0.000
  WS02006248           JUNCTION        1.33          0.380        0.000
  WS02006249           JUNCTION        1.33          0.390        0.000
  WS02006251           JUNCTION        1.31          1.180        0.000
  WS02006252           JUNCTION        1.32          1.100        0.000
  WS02006253           JUNCTION        1.32          2.480        0.000
  WS02006256           JUNCTION        4.78          2.050        0.000
  WS02006280           JUNCTION        0.40          0.743        0.037
  WS02006284           JUNCTION        0.35          0.639        0.161
  WS02006287           JUNCTION        0.28          0.697        0.193
  YS02001580           JUNCTION        0.21          0.450        0.000
  YS02001583           JUNCTION        0.22          0.500        0.000
  YS02001586           JUNCTION        0.38          0.510        0.000
  YS02001590           JUNCTION        0.43          0.750        0.000
  YS02001593           JUNCTION        0.43          0.840        0.000
  YS02001596           JUNCTION        0.51          1.070        0.000
  YS02001600           JUNCTION        0.59          1.190        0.000
  YS02001601           JUNCTION        0.85          1.440        0.000
  YS02001602           JUNCTION        0.76          1.270        0.000
  YS02001605           JUNCTION        0.72          1.180        0.000
  YS02001607           JUNCTION        0.39          0.680        0.000
  YS02001610           JUNCTION        0.41          0.680        0.000
  YS02001613           JUNCTION        0.38          0.700        0.000
  YS02001616           JUNCTION        0.35          0.610        0.000
  YS02001619           JUNCTION        0.34          0.610        0.000
  YS02001622           JUNCTION        0.33          0.586        0.034
  YS02001625           JUNCTION        0.47          0.780        0.000
  YS02001629           JUNCTION        0.28          0.470        0.000
  YS02001633           JUNCTION        0.48          0.837        0.223
  YS02001641           JUNCTION        0.43          0.657        0.443
  YS02001644           JUNCTION        0.40          0.594        0.326
  YS02001647           JUNCTION        0.21          0.276        0.624
  YS02001649           JUNCTION        0.32          0.351        0.699
  YS02001652           JUNCTION        0.08          0.237        0.893
  YS02001757           JUNCTION        0.35          0.308        0.902
  YS02001759           JUNCTION        0.27          0.240        0.970
  YS02001762           JUNCTION        0.23          0.210        0.940
  YS02001765           JUNCTION        0.15          0.209        0.891
  YS02001767           JUNCTION        0.11          0.209        0.821
  YS02001770           JUNCTION        0.08          0.209        0.711
  YS02001774           JUNCTION        0.21          0.256        0.794
  YS02001783           JUNCTION        0.28          1.047        0.553
  YS02001784           JUNCTION        0.27          0.982        0.508
  YS02001786           JUNCTION        0.16          0.825        0.605
  YS02001788           JUNCTION        0.07          0.974        0.506
  YS02001790           JUNCTION        0.13          1.157        0.000
  YS02001791           JUNCTION        0.13          1.369        0.551
  YS02001793           JUNCTION        0.16          1.130        1.470
  YS02001882           JUNCTION        0.23          0.698        0.132
  YS02001884           JUNCTION        0.24          0.723        0.147
  YS02001887           JUNCTION        0.27          0.781        0.169
  YS02001890           JUNCTION        0.28          0.760        0.000
  YS02001895           JUNCTION        0.22          0.578        0.172
  YS02001898           JUNCTION        0.21          0.555        0.185
  YS02001901           JUNCTION        0.26          0.690        0.180
  YS02001904           JUNCTION        0.25          0.644        0.206
  YS02001907           JUNCTION        0.42          0.950        0.000
  YS02001910           JUNCTION        0.30          1.008        0.092
  YS02001915           JUNCTION        0.23          0.956        0.044
  YS02001918           JUNCTION        0.15          0.810        0.000
  YS02001920           JUNCTION        0.16          1.140        0.000
  YS02001923           JUNCTION        0.01          0.820        0.000
  YS02001926           JUNCTION        0.01          0.900        0.000
  YS02001929           JUNCTION        0.01          0.780        0.000
  YS02006553           JUNCTION        0.44          1.105        0.085
  YS02006556           JUNCTION        0.36          1.186        0.164
  YS02006558           JUNCTION        0.36          1.189        0.211
  YS02006561           JUNCTION        0.12          0.805        0.345
  YS02163301           JUNCTION        0.47          0.892        0.138
  YS02163601           JUNCTION        0.50          0.809        0.271
  YS02164001           JUNCTION        0.44          0.688        0.412
  YSB1154              JUNCTION        0.46          1.251        0.149
  YSB1171              JUNCTION        0.46          1.100        0.000
  YSB1174              JUNCTION        0.41          1.109        0.141
  YSB6556              JUNCTION        0.38          1.092        0.008
  
  
  *********************
  Node Flooding Summary
  *********************
  
  Flooding refers to all water that overflows a node, whether it ponds or not.
  --------------------------------------------------------------------------
                                                             Total   Maximum
                                 Maximum   Time of Max       Flood    Ponded
                        Hours       Rate    Occurrence      Volume     Depth
  Node                 Flooded       LPS   days hr:min    10^6 ltr    Meters
  --------------------------------------------------------------------------
  HS02004770              0.11    382.26      0  01:45       0.071     0.000
  HS02004777              0.01     62.77      0  01:43       0.001     0.000
  HS02004785              0.01     60.30      0  01:43       0.000     0.000
  HS02004788              0.01    556.36      0  01:43       0.005     0.000
  HS02004792              0.11    176.42      0  01:43       0.030     0.000
  HS02004799              0.01     34.21      0  01:46       0.000     0.000
  HS02004807              0.01     21.60      0  01:46       0.000     0.000
  HS02004817              0.01     13.98      0  01:46       0.000     0.000
  HS02004824              0.01     20.71      0  01:46       0.000     0.000
  HS02004830              0.01     25.18      0  01:46       0.000     0.000
  HS02004837              0.01     26.29      0  01:46       0.000     0.000
  HS02004842              0.01     71.43      0  01:46       0.000     0.000
  HS02004848              0.01     17.77      0  01:46       0.000     0.000
  HS02004852              0.01      7.43      0  01:46       0.000     0.000
  HS02004856              0.01     14.10      0  01:46       0.000     0.000
  HS02004862              0.01     13.44      0  01:46       0.000     0.000
  HS02004876              0.01    161.87      0  01:46       0.000     0.000
  HS02004901              0.16    387.54      0  01:49       0.135     0.000
  WS02006109              0.14    108.64      0  01:47       0.031     0.000
  WS02006110              0.01     46.41      0  01:42       0.000     0.000
  WS02006112              0.01   1153.65      0  00:00       0.035     0.000
  WS02006113              0.01    199.57      0  01:41       0.000     0.000
  WS02006230              0.36    492.36      0  01:47       0.378     0.000
  WS02006232              0.09      4.51      0  01:42       0.000     0.000
  WS02006234              0.39    128.02      0  01:53       0.116     0.000
  WS02006235              0.01     17.37      0  01:40       0.000     0.000
  WS02006239              0.01    217.97      0  01:40       0.000     0.000
  WS02006240              0.01    308.31      0  01:40       0.000     0.000
  WS02006242              0.45    361.20      0  01:40       0.191     0.000
  WS02006243              0.01    280.81      0  01:40       0.001     0.000
  WS02006245              0.01    117.06      0  01:40       0.000     0.000
  WS02006247              0.01    236.73      0  01:40       0.000     0.000
  WS02006248              0.67    347.31      0  01:41       0.662     0.000
  WS02006249              1.32   1263.16      0  01:46       2.355     0.000
  WS02006251              0.01     69.82      0  01:46       0.000     0.000
  WS02006252              0.04    187.19      0  01:46       0.008     0.000
  WS02006253              0.01    410.32      0  01:41       0.000     0.000
  WS02006256              0.60    293.16      0  01:50       0.274     0.000
  YS02001580              0.01     77.98      0  01:44       0.000     0.000
  YS02001583              0.01    148.73      0  01:44       0.000     0.000
  YS02001586              0.02    131.60      0  01:44       0.003     0.000
  YS02001590              0.01      3.01      0  01:44       0.000     0.000
  YS02001593              0.01      5.96      0  01:44       0.000     0.000
  YS02001596              0.01      3.05      0  01:44       0.000     0.000
  YS02001600              0.01      7.28      0  01:43       0.000     0.000
  YS02001601              0.32    498.01      0  01:46       0.341     0.000
  YS02001602              0.19     61.92      0  01:51       0.028     0.000
  YS02001605              0.01     14.31      0  01:44       0.000     0.000
  YS02001607              0.01     25.34      0  01:44       0.000     0.000
  YS02001610              0.10    170.79      0  01:44       0.014     0.000
  YS02001613              0.01     40.35      0  01:44       0.000     0.000
  YS02001616              0.01     26.02      0  01:44       0.000     0.000
  YS02001619              0.01     11.63      0  01:45       0.000     0.000
  YS02001625              0.06    122.27      0  01:45       0.004     0.000
  YS02001629              0.01    226.82      0  01:44       0.001     0.000
  YS02001790              0.01    219.17      0  02:07       0.000     0.000
  YS02001890              0.01     39.46      0  01:46       0.000     0.000
  YS02001907              0.10    690.27      0  01:48       0.100     0.000
  YS02001918              0.01    112.31      0  01:47       0.001     0.000
  YS02001920              0.01     18.43      0  01:47       0.000     0.000
  YS02001923              0.01    404.86      0  01:47       0.000     0.000
  YS02001926              0.01     44.91      0  01:47       0.000     0.000
  YS02001929              0.01    167.64      0  01:47       0.000     0.000
  YSB1171                 0.01     59.78      0  01:46       0.001     0.000
  JK-storage              0.10    978.26      0  01:46       0.278     0.000
  
  
  **********************
  Storage Volume Summary
  **********************
  
  --------------------------------------------------------------------------------------------------
                         Average     Avg  Evap Exfil       Maximum     Max    Time of Max    Maximum
                          Volume    Pcnt  Pcnt  Pcnt        Volume    Pcnt     Occurrence    Outflow
  Storage Unit           1000 m3    Full  Loss  Loss       1000 m3    Full    days hr:min        LPS
  --------------------------------------------------------------------------------------------------
  CC-storage               1.905      30     0     0         3.946      62       0  02:04    1766.00
  JK-storage               0.131      45     0     0         0.291     100       0  01:46    2340.10
  XR-storage               0.905      63     0     0         1.039      72       0  06:00     190.00
  
  
  ***********************
  Outfall Loading Summary
  ***********************
  
  -----------------------------------------------------------
                         Flow       Avg       Max       Total
                         Freq      Flow      Flow      Volume
  Outfall Node           Pcnt       LPS       LPS    10^6 ltr
  -----------------------------------------------------------
  CC-1                  19.14    683.00    683.00       2.463
  CC-2                  19.14    683.00    683.00       2.463
  JK-1                   9.68    682.91   1000.00       1.152
  JK-2                   9.68    682.91   1000.00       1.152
  WSC                   99.99    544.98   1470.43      10.418
  -----------------------------------------------------------
  System                31.53   3276.81   1470.43      17.648
  
  
  ********************
  Link Flow Summary
  ********************
  
  -----------------------------------------------------------------------------
                                 Maximum  Time of Max   Maximum    Max/    Max/
                                  |Flow|   Occurrence   |Veloc|    Full    Full
  Link                 Type          LPS  days hr:min     m/sec    Flow   Depth
  -----------------------------------------------------------------------------
  1                    CONDUIT   1470.43     0  01:52      3.68    0.51    0.51
  HS02004478WS02006287 CONDUIT   2136.85     0  01:47      2.69    0.60    1.00
  HS02004479HS02004480 CONDUIT    449.91     0  01:44      0.64    0.43    1.00
  HS02004480HS02004478 CONDUIT   2199.36     0  01:44      3.14    9.26    1.00
  HS02004770HS02004777 CONDUIT    830.11     0  01:43      1.19    1.52    1.00
  HS02004777HS02004785 CONDUIT    845.02     0  01:43      1.37    1.04    1.00
  HS02004785HS02004788 CONDUIT    810.26     0  01:43      1.35    6.11    1.00
  HS02004788HS02004792 CONDUIT    822.05     0  01:53      1.47    0.54    1.00
  HS02004792HS02004799 CONDUIT   1609.90     0  01:44      2.30    0.99    1.00
  HS02004799HS02004480 CONDUIT   1798.00     0  01:44      2.57    2.27    1.00
  HS02004802HS02004478 CONDUIT    358.09     0  02:06      0.71    0.32    1.00
  HS02004807HS02004802 CONDUIT    342.63     0  02:07      0.63    0.65    1.00
  HS02004817HS02004807 CONDUIT    528.15     0  01:44      0.75    0.31    1.00
  HS02004817HS02004824 CONDUIT    529.03     0  01:44      0.76    0.24    1.00
  HS02004824HS02004830 CONDUIT    749.98     0  01:44      1.09    0.98    1.00
  HS02004830HS02004837 CONDUIT    785.91     0  01:44      1.24    0.78    1.00
  HS02004837HS02004842 CONDUIT    925.27     0  01:44      1.32    0.55    1.00
  HS02004842HS02004848 CONDUIT    924.37     0  01:44      1.47    0.54    1.00
  HS02004848HS02004852 CONDUIT   1094.26     0  01:45      1.71    1.23    1.00
  HS02004852HS02004856 CONDUIT   1027.80     0  01:45      1.53    1.18    1.00
  HS02004856HS02004862 CONDUIT   1112.70     0  01:45      1.74    1.11    1.00
  HS02004862HS02004870 CONDUIT   1233.39     0  01:46      1.97    1.33    1.00
  HS02004870HS02004876 CONDUIT   1337.97     0  01:46      2.05    0.89    1.00
  HS02004876HS02004881 CONDUIT   1335.40     0  01:46      2.31   14.20    1.00
  HS02004881HS02006253 CONDUIT   1292.86     0  01:46      1.85    0.25    1.00
  HS02004901HS02004770 CONDUIT    237.44     0  01:49      0.34    0.89    1.00
  WS02001211WS02001212 CONDUIT    287.37     0  01:50      0.54    0.22    0.70
  WS02001212WS02001213 CONDUIT    297.54     0  01:50      1.04    0.46    0.59
  WS02001213WS02003059 CONDUIT    271.03     0  01:49      0.47    0.45    0.90
  WS02003059WS02003060 CONDUIT    269.76     0  01:51      0.67    0.18    0.81
  WS02003060WS02003069 CONDUIT   1471.64     0  01:52      2.13    0.58    0.60
  WS02003066WSF200     CONDUIT   1261.34     0  01:46      3.57    0.21    0.39
  WS02003067WS02003066 CONDUIT   1265.21     0  01:46      2.00    0.41    0.58
  WS02003069WS02003072 CONDUIT   1464.71     0  01:52      1.88    0.71    0.65
  WS02003072WS02003073 CONDUIT   1466.80     0  01:51      2.03    3.17    0.61
  WS02004138WS02004139 CONDUIT    191.01     0  00:29      2.14    0.04    0.42
  WS02004139WS02001211 CONDUIT    312.25     0  01:48      0.53    0.39    0.61
  WS02004401WS02004402 CONDUIT   1273.94     0  01:44      2.07    1.53    1.00
  WS02004402WS02004403 CONDUIT   1274.95     0  01:44      1.84    1.83    1.00
  WS02004403WS02004404 CONDUIT   1275.46     0  01:44      1.66    0.92    1.00
  WS02004404WS02004405 CONDUIT   1278.40     0  01:44      1.85   12.52    1.00
  WS02004405WS02004406 CONDUIT   1279.77     0  01:44      1.73    2.52    1.00
  WS02004406WS02004407 CONDUIT   1280.00     0  01:44      2.02    0.57    0.93
  WS02004407WS02004409 CONDUIT   1249.86     0  01:46      2.10    0.44    0.93
  WS02004409WS02004410 CONDUIT   1249.95     0  01:46      1.59    1.62    1.00
  WS02004410WS02004411 CONDUIT   1250.17     0  01:46      1.59    1.71    1.00
  WS02004411WS02004412 CONDUIT   1250.01     0  01:46      1.59    1.78    1.00
  WS02004412WS02004413 CONDUIT   1249.99     0  01:46      1.59    0.84    1.00
  WS02004413WS02003067 CONDUIT   1249.83     0  01:46      1.95    0.54    0.76
  WS02006109WS02006110 CONDUIT   1306.78     0  00:00      3.15    2.51    1.00
  WS02006110WS02006113 CONDUIT   1191.13     0  01:41      2.37    1.08    1.00
  WS02006111WS02006112 CONDUIT   2307.30     0  00:00      9.18    1.10    1.00
  WS02006112WS02006115 CONDUIT   2152.75     0  00:00      2.85    1.27    1.00
  WS02006113WS02006111 CONDUIT   1176.04     0  00:00      2.69    1.41    1.00
  WS02006115WS02006116 CONDUIT   1272.83     0  01:44      1.81    1.63    1.00
  WS02006116WS02004401 CONDUIT   1272.68     0  01:44      2.21    1.75    1.00
  WS02006228WS02006109 CONDUIT   1206.37     0  01:47      2.40    5.27    1.00
  WS02006229WS02006228 CONDUIT   1205.88     0  01:47      2.40    3.99    1.00
  WS02006230WS02006229 CONDUIT    935.33     0  01:47      2.43   20.82    1.00
  WS02006231WS02006230 CONDUIT    462.71     0  02:40      1.30    7.02    1.00
  WS02006232WS02006231 CONDUIT    461.65     0  02:40      1.20    0.97    1.00
  WS02006234WS02006232 CONDUIT    460.13     0  02:40      1.20    0.93    1.00
  WS02006235WS02006234 CONDUIT    456.30     0  02:40      1.19    4.81    1.00
  WS02006238WS02006235 CONDUIT    416.15     0  01:51      1.33    0.93    1.00
  WS02006239WS02006238 CONDUIT    415.50     0  01:51      1.08    1.33    1.00
  WS02006240WS02006239 CONDUIT    415.02     0  01:51      1.09    1.31    1.00
  WS02006242WS02006240 CONDUIT    415.24     0  01:51      1.08    1.65    1.00
  WS02006243WS02006242 CONDUIT    398.81     0  03:00      1.13    0.85    1.00
  WS02006245WS02006243 CONDUIT    398.77     0  03:00      1.13    1.18    1.00
  WS02006247WS02006245 CONDUIT    398.82     0  03:00      1.10    3.16    1.00
  WS02006248WS02006247 CONDUIT    398.84     0  03:00      1.15    0.87    1.00
  WS02006249WS02006248 CONDUIT    413.85     0  01:40      1.20    2.27    1.00
  WS02006251WS02006249 CONDUIT   1325.68     0  01:46      3.44    3.82    1.00
  WS02006252WS02006251 CONDUIT    406.74     0  02:05      3.24    1.49    1.00
  WS02006253WS02006251 CONDUIT   1311.60     0  01:46      3.41    3.93    1.00
  WS02006256WS02006235 CONDUIT    288.30     0  05:01      4.19    3.05    1.00
  WS02006280WS02006229 CONDUIT   2139.24     0  01:47      4.43    0.46    1.00
  WS02006284WS02006280 CONDUIT   2137.84     0  01:47      3.02    0.90    1.00
  WS02006287WS02006284 CONDUIT   2137.93     0  01:47      2.85    0.99    1.00
  WSF200WS02003060     CONDUIT   1398.78     0  01:44      2.86    0.31    0.50
  YS02001580YS02001583 CONDUIT    175.65     0  01:44      0.91    0.68    1.00
  YS02001583YS02001586 CONDUIT    205.67     0  01:43      0.95    0.31    1.00
  YS02001586YS02001590 CONDUIT    307.80     0  01:50      1.32    0.54    1.00
  YS02001590YS02001593 CONDUIT    307.67     0  01:50      1.09    1.93    1.00
  YS02001593YS02001596 CONDUIT    307.77     0  01:50      1.69    0.49    1.00
  YS02001596YS02001600 CONDUIT    308.03     0  01:50      1.19    0.60    1.00
  YS02001600YS02001601 CONDUIT    307.82     0  01:50      1.09    0.53    1.00
  YS02001601YS02001602 CONDUIT    593.32     0  01:44      2.10    2.14    1.00
  YS02001602YS02001605 CONDUIT    593.32     0  01:44      2.10   12.56    1.00
  YS02001605YS02001607 CONDUIT    593.11     0  01:44      2.10    3.25    1.00
  YS02001607YS02001610 CONDUIT    570.31     0  01:44      0.77    0.54    1.00
  YS02001610YS02001613 CONDUIT    542.08     0  01:44      0.74    0.63    1.00
  YS02001613YS02001616 CONDUIT    501.84     0  01:44      0.72    0.43    1.00
  YS02001616YS02001619 CONDUIT    485.41     0  02:03      0.71    0.84    1.00
  YS02001619YS02001622 CONDUIT    902.76     0  01:46      1.45    1.33    1.00
  YS02001622YS02001625 CONDUIT    903.49     0  01:46      1.15    0.48    1.00
  YS02001625YS02001629 CONDUIT    903.98     0  01:46      1.15    0.43    1.00
  YS02001629YS02163301 CONDUIT    904.08     0  01:46      1.15    1.11    1.00
  YS02001633YS02163601 CONDUIT   1336.52     0  01:46      1.70    1.40    1.00
  YS02001641YS02001644 CONDUIT   1336.94     0  01:46      1.70    4.32    1.00
  YS02001644YS02001647 CONDUIT   1733.13     0  01:46      2.27    1.02    1.00
  YS02001647YS02001649 CONDUIT   1772.44     0  01:45      2.34    0.94    1.00
  YS02001649YS02001757 CONDUIT   2122.69     0  01:46      2.71    1.29    1.00
  YS02001652YS02001649 CONDUIT    466.59     0  01:46      1.12    0.23    1.00
  YS02001655YS02001652 CONDUIT    466.59     0  01:46      1.83    0.23    0.96
  YS02001658YS02001655 CONDUIT    474.32     0  01:51      2.09    0.20    0.72
  YS02001661YS02001658 CONDUIT    417.66     0  01:45      2.30    0.16    0.42
  YS02001664YS02001661 CONDUIT    417.27     0  01:45      2.16    0.13    0.29
  YS02001745YS02001748 CONDUIT    289.61     0  01:45      2.19    0.11    0.30
  YS02001748YS02001751 CONDUIT    315.91     0  01:50      1.83    0.16    0.57
  YS02001751YS02001754 CONDUIT    344.56     0  01:51      1.74    0.17    0.80
  YS02001754YS02001757 CONDUIT    308.01     0  01:45      0.80    0.12    0.98
  YS02001757CaochengTiaoxuchi CONDUIT   2827.95     0  01:50      3.73    1.22    1.00
  YS02001759YS02001757 CONDUIT    820.12     0  01:49      1.30    0.58    1.00
  YS02001762YS02001759 CONDUIT    511.70     0  01:49      0.65    0.59    1.00
  YS02001765YS02001762 CONDUIT    508.83     0  01:49      0.77    0.48    1.00
  YS02001767YS02001765 CONDUIT    504.85     0  01:49      0.95    0.63    1.00
  YS02001770YS02001767 CONDUIT    505.80     0  01:48      0.98    2.00    1.00
  YS02001774YS02001770 CONDUIT    160.01     0  01:46      0.26    0.10    1.00
  YS02001779YS02001774 CONDUIT    133.07     0  01:48      0.18    0.07    0.97
  YS02001783YS02001784 CONDUIT   1136.51     0  01:52      2.26    1.57    1.00
  YS02001784YS02001785 CONDUIT   1137.15     0  01:53      2.26    2.65    1.00
  YS02001786YS02001788 CONDUIT   1137.05     0  01:53      2.44    2.19    1.00
  YS02001788YS02001790 CONDUIT   1194.42     0  01:51      2.69    0.88    1.00
  YS02001790YS02001791 CONDUIT   1350.68     0  01:51      3.45    1.47    1.00
  YS02001791YS02001793 CONDUIT   1406.99     0  01:51      6.73    0.60    1.00
  YS02001793JiankangQianchi CONDUIT   1693.25     0  01:51     22.49    0.13    1.00
  YS02001882YS02001884 CONDUIT     69.90     0  01:45      0.15    0.08    1.00
  YS02001884YS02001887 CONDUIT    117.86     0  01:45      0.17    0.16    1.00
  YS02001887YS02001890 CONDUIT    447.86     0  01:45      0.57    0.77    1.00
  YS02001890YS02001895 CONDUIT    449.50     0  01:45      0.57    0.21    1.00
  YS02001895YS02001898 CONDUIT    459.11     0  01:45      0.58    0.80    1.00
  YS02001898YS02001901 CONDUIT    481.99     0  01:45      0.61    0.31    1.00
  YS02001901YS02001904 CONDUIT    485.20     0  01:45      0.62    0.75    1.00
  YS02001904YS02001907 CONDUIT    492.49     0  01:45      0.63    0.17    1.00
  YS02001907YS02006553 CONDUIT    787.61     0  01:53      0.88    0.93    1.00
  YS02001910YS02001907 CONDUIT    859.17     0  01:48      1.09    0.48    1.00
  YS02001915YS02001910 CONDUIT    859.67     0  01:48      1.09    0.43    1.00
  YS02001918YS02001915 CONDUIT    441.59     0  01:48      0.57    0.24    1.00
  YS02001920YS02001918 CONDUIT    439.19     0  01:48      0.71    0.42    1.00
  YS02001923YS02001920 CONDUIT    435.93     0  01:48      0.86    0.20    1.00
  YS02001926YS02001923 CONDUIT    435.08     0  01:47      0.97    0.62    1.00
  YS02001929YS02001926 CONDUIT    393.95     0  01:48      1.10    0.19    1.00
  YS02006553YS02006556 CONDUIT    787.40     0  01:53      1.00    0.67    1.00
  YS02006556YS02006558 CONDUIT    789.21     0  01:53      1.00    0.62    1.00
  YS02006558YS02006561 CONDUIT   1136.18     0  01:51      4.02    2.51    1.00
  YS02006561YS02001783 CONDUIT   1136.25     0  01:53      2.29    0.59    1.00
  YS02163301YS02001633 CONDUIT    903.95     0  01:46      1.15    0.85    1.00
  YS02163601YS02164001 CONDUIT   1336.86     0  01:46      1.70    1.18    1.00
  YS02164001YS02001641 CONDUIT   1337.27     0  01:46      1.70    1.83    1.00
  YSB1154YSB6556       CONDUIT    222.30     0  01:45      0.58    0.40    1.00
  YSB1171HS02004479    CONDUIT    443.28     0  01:44      0.88    0.30    1.00
  YSB1174YSB1171       CONDUIT    212.08     0  01:44      0.55    0.32    1.00
  YSB6556YSB1171       CONDUIT    225.52     0  01:44      0.59    0.23    1.00
  CC-R1                PUMP       683.00     0  02:00              1.00
  CC-R2                PUMP       683.00     0  02:00              1.00
  CC-S1                PUMP       200.00     0  00:40              1.00
  CC-S2                PUMP       200.00     0  02:00              1.00
  JK-R1                PUMP      1000.00     0  01:50              1.00
  JK-R2                PUMP      1000.00     0  01:50              1.00
  JK-S                 PUMP       300.00     0  01:50              1.00
  XR-1                 PUMP        95.00     0  00:10              1.00
  XR-2                 PUMP        95.00     0  00:29              1.00
  XR-3                 PUMP         0.00     0  00:00              0.00
  XR-4                 PUMP         0.00     0  00:00              0.00
  
  
  ***************************
  Flow Classification Summary
  ***************************
  
  -------------------------------------------------------------------------------------
                      Adjusted    ---------- Fraction of Time in Flow Class ---------- 
                       /Actual         Up    Down  Sub   Sup   Up    Down  Norm  Inlet 
  Conduit               Length    Dry  Dry   Dry   Crit  Crit  Crit  Crit  Ltd   Ctrl  
  -------------------------------------------------------------------------------------
  1                       1.00   0.00  0.00  0.00  0.00  1.00  0.00  0.00  0.40  0.00
  HS02004478WS02006287    1.00   0.35  0.00  0.00  0.39  0.26  0.00  0.00  0.53  0.00
  HS02004479HS02004480    1.00   0.01  0.00  0.00  0.99  0.00  0.00  0.00  0.18  0.00
  HS02004480HS02004478    1.00   0.22  0.00  0.00  0.29  0.00  0.00  0.49  0.00  0.00
  HS02004770HS02004777    1.00   0.00  0.18  0.00  0.82  0.00  0.00  0.00  0.06  0.00
  HS02004777HS02004785    1.00   0.00  0.00  0.00  1.00  0.00  0.00  0.00  0.19  0.00
  HS02004785HS02004788    1.00   0.00  0.00  0.00  1.00  0.00  0.00  0.00  0.00  0.00
  HS02004788HS02004792    1.00   0.00  0.00  0.00  1.00  0.00  0.00  0.00  0.92  0.00
  HS02004792HS02004799    1.00   0.00  0.00  0.00  1.00  0.00  0.00  0.00  0.89  0.00
  HS02004799HS02004480    1.00   0.00  0.01  0.00  0.64  0.00  0.35  0.00  0.00  0.00
  HS02004802HS02004478    1.00   0.21  0.04  0.00  0.74  0.00  0.00  0.00  0.03  0.00
  HS02004807HS02004802    1.00   0.19  0.00  0.00  0.75  0.00  0.00  0.07  0.01  0.00
  HS02004817HS02004807    1.00   0.00  0.19  0.00  0.81  0.00  0.00  0.00  0.01  0.00
  HS02004817HS02004824    1.00   0.00  0.00  0.00  1.00  0.00  0.00  0.00  0.86  0.00
  HS02004824HS02004830    1.00   0.00  0.00  0.00  1.00  0.00  0.00  0.00  0.01  0.00
  HS02004830HS02004837    1.00   0.00  0.00  0.00  1.00  0.00  0.00  0.00  0.90  0.00
  HS02004837HS02004842    1.00   0.00  0.00  0.00  1.00  0.00  0.00  0.00  0.14  0.00
  HS02004842HS02004848    1.00   0.00  0.19  0.00  0.81  0.00  0.00  0.00  0.50  0.00
  HS02004848HS02004852    1.00   0.19  0.00  0.00  0.81  0.00  0.00  0.00  0.65  0.00
  HS02004852HS02004856    1.00   0.18  0.08  0.00  0.74  0.00  0.00  0.00  0.66  0.00
  HS02004856HS02004862    1.00   0.00  0.41  0.00  0.59  0.00  0.00  0.00  0.68  0.00
  HS02004862HS02004870    1.00   0.00  0.00  0.00  1.00  0.00  0.00  0.00  0.05  0.00
  HS02004870HS02004876    1.00   0.00  0.00  0.00  1.00  0.00  0.00  0.00  0.87  0.00
  HS02004876HS02004881    1.00   0.00  0.00  0.00  0.84  0.16  0.00  0.00  0.00  0.00
  HS02004881HS02006253    1.00   0.02  0.00  0.00  0.70  0.00  0.00  0.28  0.33  0.00
  HS02004901HS02004770    1.00   0.18  0.01  0.00  0.82  0.00  0.00  0.00  0.01  0.00
  WS02001211WS02001212    1.00   0.00  0.01  0.00  0.99  0.00  0.00  0.00  0.00  0.00
  WS02001212WS02001213    1.00   0.01  0.00  0.00  0.32  0.00  0.67  0.00  0.00  0.00
  WS02001213WS02003059    1.00   0.00  0.00  0.00  1.00  0.00  0.00  0.00  0.00  0.00
  WS02003059WS02003060    1.00   0.00  0.00  0.00  1.00  0.00  0.00  0.00  0.04  0.00
  WS02003060WS02003069    1.00   0.00  0.00  0.00  0.99  0.01  0.00  0.00  0.36  0.00
  WS02003066WSF200        1.00   0.13  0.00  0.00  0.00  0.87  0.00  0.00  0.59  0.00
  WS02003067WS02003066    1.00   0.03  0.08  0.00  0.89  0.00  0.00  0.00  0.00  0.00
  WS02003069WS02003072    1.00   0.00  0.00  0.00  1.00  0.00  0.00  0.00  0.56  0.00
  WS02003072WS02003073    1.00   0.00  0.00  0.00  0.00  0.00  0.00  1.00  0.00  0.00
  WS02004138WS02004139    1.00   0.01  0.00  0.00  0.99  0.00  0.00  0.00  0.97  0.00
  WS02004139WS02001211    1.00   0.00  0.00  0.00  1.00  0.00  0.00  0.00  0.01  0.00
  WS02004401WS02004402    1.00   0.00  0.00  0.00  1.00  0.00  0.00  0.00  0.00  0.00
  WS02004402WS02004403    1.00   0.00  0.00  0.00  1.00  0.00  0.00  0.00  0.00  0.00
  WS02004403WS02004404    1.00   0.00  0.00  0.00  1.00  0.00  0.00  0.00  0.00  0.00
  WS02004404WS02004405    1.00   0.00  0.00  0.00  1.00  0.00  0.00  0.00  0.00  0.00
  WS02004405WS02004406    1.00   0.00  0.00  0.00  1.00  0.00  0.00  0.00  0.00  0.00
  WS02004406WS02004407    1.00   0.00  0.00  0.00  1.00  0.00  0.00  0.00  0.01  0.00
  WS02004407WS02004409    1.00   0.00  0.00  0.00  0.99  0.00  0.00  0.00  0.89  0.00
  WS02004409WS02004410    1.00   0.00  0.00  0.00  1.00  0.00  0.00  0.00  0.05  0.00
  WS02004410WS02004411    1.00   0.00  0.00  0.00  1.00  0.00  0.00  0.00  0.03  0.00
  WS02004411WS02004412    1.00   0.00  0.00  0.00  1.00  0.00  0.00  0.00  0.01  0.00
  WS02004412WS02004413    1.00   0.00  0.00  0.00  1.00  0.00  0.00  0.00  0.02  0.00
  WS02004413WS02003067    1.00   0.01  0.02  0.00  0.00  0.00  0.97  0.00  0.00  0.00
  WS02006109WS02006110    1.00   0.00  0.00  0.00  1.00  0.00  0.00  0.00  0.00  0.00
  WS02006110WS02006113    1.00   0.00  0.00  0.00  1.00  0.00  0.00  0.00  0.00  0.00
  WS02006111WS02006112    1.00   0.00  0.00  0.00  1.00  0.00  0.00  0.00  0.78  0.00
  WS02006112WS02006115    1.00   0.00  0.00  0.00  1.00  0.00  0.00  0.00  0.00  0.00
  WS02006113WS02006111    1.00   0.00  0.00  0.00  0.20  0.80  0.00  0.00  0.11  0.00
  WS02006115WS02006116    1.00   0.00  0.00  0.00  1.00  0.00  0.00  0.00  0.00  0.00
  WS02006116WS02004401    1.00   0.00  0.00  0.00  1.00  0.00  0.00  0.00  0.00  0.00
  WS02006228WS02006109    1.00   0.00  0.00  0.00  1.00  0.00  0.00  0.00  0.00  0.00
  WS02006229WS02006228    1.00   0.00  0.00  0.00  1.00  0.00  0.00  0.00  0.00  0.00
  WS02006230WS02006229    1.00   0.00  0.00  0.00  1.00  0.00  0.00  0.00  0.03  0.00
  WS02006231WS02006230    1.00   0.00  0.00  0.00  0.34  0.00  0.65  0.00  0.00  0.00
  WS02006232WS02006231    1.00   0.00  0.00  0.00  0.98  0.00  0.02  0.00  0.01  0.00
  WS02006234WS02006232    1.00   0.00  0.00  0.00  1.00  0.00  0.00  0.00  0.11  0.00
  WS02006235WS02006234    1.00   0.07  0.00  0.00  0.86  0.00  0.07  0.00  0.00  0.00
  WS02006238WS02006235    1.00   0.06  0.01  0.00  0.93  0.01  0.00  0.00  0.00  0.00
  WS02006239WS02006238    1.00   0.06  0.00  0.00  0.93  0.00  0.00  0.01  0.15  0.00
  WS02006240WS02006239    1.00   0.05  0.00  0.00  0.78  0.00  0.00  0.16  0.01  0.00
  WS02006242WS02006240    1.00   0.02  0.03  0.00  0.93  0.00  0.02  0.00  0.00  0.00
  WS02006243WS02006242    1.00   0.01  0.00  0.00  0.94  0.00  0.00  0.05  0.42  0.00
  WS02006245WS02006243    1.00   0.01  0.00  0.00  0.88  0.00  0.00  0.11  0.00  0.00
  WS02006247WS02006245    1.00   0.01  0.00  0.00  0.95  0.00  0.00  0.04  0.00  0.00
  WS02006248WS02006247    1.00   0.01  0.00  0.00  0.96  0.00  0.00  0.03  0.45  0.00
  WS02006249WS02006248    1.00   0.00  0.01  0.00  0.73  0.00  0.26  0.00  0.00  0.00
  WS02006251WS02006249    1.00   0.00  0.00  0.00  1.00  0.00  0.00  0.00  0.56  0.00
  WS02006252WS02006251    1.00   0.03  0.27  0.00  0.26  0.00  0.44  0.00  0.00  0.00
  WS02006253WS02006251    1.00   0.02  0.02  0.00  0.97  0.00  0.00  0.00  0.00  0.00
  WS02006256WS02006235    1.00   0.07  0.00  0.00  0.93  0.01  0.00  0.00  0.00  0.00
  WS02006280WS02006229    1.00   0.22  0.00  0.00  0.14  0.04  0.00  0.60  0.02  0.00
  WS02006284WS02006280    1.00   0.22  0.00  0.00  0.09  0.01  0.00  0.68  0.00  0.00
  WS02006287WS02006284    1.00   0.10  0.26  0.00  0.29  0.35  0.00  0.00  0.66  0.00
  WSF200WS02003060        1.00   0.00  0.13  0.00  0.58  0.29  0.00  0.00  0.57  0.00
  YS02001580YS02001583    1.00   0.48  0.30  0.00  0.23  0.00  0.00  0.00  0.64  0.00
  YS02001583YS02001586    1.00   0.33  0.37  0.00  0.30  0.00  0.00  0.00  0.64  0.00
  YS02001586YS02001590    1.00   0.18  0.00  0.00  0.45  0.08  0.00  0.30  0.40  0.00
  YS02001590YS02001593    1.00   0.19  0.05  0.00  0.11  0.00  0.65  0.00  0.00  0.00
  YS02001593YS02001596    1.00   0.25  0.00  0.00  0.13  0.01  0.00  0.62  0.02  0.00
  YS02001596YS02001600    1.00   0.25  0.00  0.00  0.21  0.02  0.00  0.52  0.06  0.00
  YS02001600YS02001601    1.00   0.22  0.04  0.00  0.74  0.00  0.00  0.00  0.55  0.00
  YS02001601YS02001602    1.00   0.18  0.08  0.00  0.74  0.00  0.00  0.00  0.00  0.00
  YS02001602YS02001605    1.00   0.26  0.00  0.00  0.74  0.00  0.00  0.00  0.00  0.00
  YS02001605YS02001607    1.00   0.27  0.00  0.00  0.73  0.00  0.00  0.00  0.00  0.00
  YS02001607YS02001610    1.00   0.21  0.06  0.00  0.72  0.00  0.00  0.00  0.03  0.00
  YS02001610YS02001613    1.00   0.20  0.00  0.00  0.80  0.00  0.00  0.00  0.03  0.00
  YS02001613YS02001616    1.00   0.19  0.00  0.00  0.81  0.00  0.00  0.00  0.01  0.00
  YS02001616YS02001619    1.00   0.18  0.00  0.00  0.82  0.00  0.00  0.00  0.00  0.00
  YS02001619YS02001622    1.00   0.18  0.00  0.00  0.82  0.01  0.00  0.00  0.12  0.00
  YS02001622YS02001625    1.00   0.19  0.00  0.00  0.81  0.00  0.00  0.00  0.09  0.00
  YS02001625YS02001629    1.00   0.20  0.24  0.00  0.14  0.00  0.42  0.00  0.00  0.00
  YS02001629YS02163301    1.00   0.36  0.03  0.00  0.60  0.00  0.00  0.00  0.00  0.00
  YS02001633YS02163601    1.00   0.00  0.00  0.00  1.00  0.00  0.00  0.00  0.23  0.00
  YS02001641YS02001644    1.00   0.00  0.00  0.00  1.00  0.00  0.00  0.00  0.00  0.00
  YS02001644YS02001647    1.00   0.00  0.42  0.00  0.58  0.00  0.00  0.00  0.00  0.00
  YS02001647YS02001649    1.00   0.00  0.42  0.00  0.29  0.29  0.00  0.00  0.48  0.00
  YS02001649YS02001757    1.00   0.00  0.00  0.00  0.70  0.30  0.00  0.00  0.55  0.00
  YS02001652YS02001649    1.00   0.00  0.00  0.00  0.87  0.13  0.00  0.00  0.74  0.00
  YS02001655YS02001652    1.00   0.00  0.00  0.00  0.16  0.02  0.00  0.82  0.06  0.00
  YS02001658YS02001655    1.00   0.00  0.29  0.00  0.33  0.38  0.00  0.00  0.67  0.00
  YS02001661YS02001658    1.00   0.29  0.00  0.00  0.18  0.53  0.00  0.00  0.71  0.00
  YS02001664YS02001661    1.00   0.18  0.00  0.00  0.65  0.17  0.00  0.00  0.82  0.00
  YS02001745YS02001748    1.00   0.00  0.00  0.00  0.05  0.02  0.00  0.93  0.05  0.00
  YS02001748YS02001751    1.00   0.00  0.00  0.00  0.67  0.33  0.00  0.00  0.80  0.00
  YS02001751YS02001754    1.00   0.00  0.00  0.00  0.14  0.00  0.00  0.86  0.02  0.00
  YS02001754YS02001757    1.00   0.00  0.00  0.00  1.00  0.00  0.00  0.00  0.88  0.00
  YS02001757CaochengTiaoxuchi    1.00   0.00  0.00  0.00  0.94  0.06  0.00  0.00  0.76  0.00
  YS02001759YS02001757    1.00   0.00  0.00  0.00  1.00  0.00  0.00  0.00  0.65  0.00
  YS02001762YS02001759    1.00   0.00  0.00  0.00  1.00  0.00  0.00  0.00  0.06  0.00
  YS02001765YS02001762    1.00   0.00  0.00  0.00  1.00  0.00  0.00  0.00  0.76  0.00
  YS02001767YS02001765    1.00   0.00  0.00  0.00  1.00  0.00  0.00  0.00  0.00  0.00
  YS02001770YS02001767    1.00   0.00  0.00  0.00  1.00  0.00  0.00  0.00  0.00  0.00
  YS02001774YS02001770    1.00   0.00  0.26  0.00  0.74  0.00  0.00  0.00  0.06  0.00
  YS02001779YS02001774    1.00   0.00  0.00  0.00  1.00  0.00  0.00  0.00  0.83  0.00
  YS02001783YS02001784    1.00   0.00  0.43  0.00  0.57  0.00  0.00  0.00  0.46  0.00
  YS02001784YS02001785    1.00   0.00  0.00  0.00  1.00  0.00  0.00  0.00  0.25  0.00
  YS02001786YS02001788    1.00   0.00  0.00  0.00  0.74  0.26  0.00  0.00  0.00  0.00
  YS02001788YS02001790    1.00   0.00  0.00  0.00  0.49  0.51  0.00  0.00  0.86  0.00
  YS02001790YS02001791    1.00   0.00  0.00  0.00  0.04  0.96  0.00  0.00  0.17  0.00
  YS02001791YS02001793    1.00   0.00  0.00  0.00  0.04  0.96  0.00  0.00  0.01  0.00
  YS02001793JiankangQianchi    1.00   0.00  0.00  0.00  0.89  0.11  0.00  0.00  0.87  0.00
  YS02001882YS02001884    1.00   0.34  0.04  0.00  0.62  0.00  0.00  0.00  0.00  0.00
  YS02001884YS02001887    1.00   0.02  0.11  0.00  0.87  0.00  0.00  0.00  0.00  0.00
  YS02001887YS02001890    1.00   0.00  0.00  0.00  0.99  0.00  0.01  0.00  0.00  0.00
  YS02001890YS02001895    1.00   0.00  0.40  0.00  0.60  0.00  0.00  0.00  0.00  0.00
  YS02001895YS02001898    1.00   0.40  0.01  0.00  0.56  0.00  0.03  0.00  0.00  0.00
  YS02001898YS02001901    1.00   0.40  0.01  0.00  0.59  0.00  0.00  0.00  0.01  0.00
  YS02001901YS02001904    1.00   0.39  0.00  0.00  0.61  0.00  0.00  0.00  0.00  0.00
  YS02001904YS02001907    1.00   0.00  0.39  0.00  0.61  0.00  0.00  0.00  0.00  0.00
  YS02001907YS02006553    1.00   0.00  0.01  0.00  0.99  0.00  0.00  0.00  0.00  0.00
  YS02001910YS02001907    1.00   0.00  0.00  0.00  0.99  0.00  0.00  0.01  0.17  0.00
  YS02001915YS02001910    1.00   0.00  0.00  0.00  0.94  0.06  0.00  0.00  0.24  0.00
  YS02001918YS02001915    1.00   0.00  0.00  0.00  1.00  0.00  0.00  0.00  0.72  0.00
  YS02001920YS02001918    1.00   0.00  0.00  0.00  1.00  0.00  0.00  0.00  0.01  0.00
  YS02001923YS02001920    1.00   0.00  0.00  0.00  1.00  0.00  0.00  0.00  0.94  0.00
  YS02001926YS02001923    1.00   0.00  0.03  0.00  0.05  0.00  0.93  0.00  0.00  0.00
  YS02001929YS02001926    1.00   0.00  0.18  0.00  0.82  0.00  0.00  0.00  0.80  0.00
  YS02006553YS02006556    1.00   0.00  0.00  0.00  1.00  0.00  0.00  0.00  0.04  0.00
  YS02006556YS02006558    1.00   0.00  0.00  0.00  1.00  0.00  0.00  0.00  0.00  0.00
  YS02006558YS02006561    1.00   0.43  0.00  0.00  0.04  0.53  0.00  0.00  0.24  0.00
  YS02006561YS02001783    1.00   0.43  0.00  0.00  0.09  0.48  0.00  0.00  0.63  0.00
  YS02163301YS02001633    1.00   0.00  0.36  0.00  0.64  0.00  0.00  0.00  0.00  0.00
  YS02163601YS02164001    1.00   0.00  0.03  0.00  0.97  0.00  0.00  0.00  0.00  0.00
  YS02164001YS02001641    1.00   0.00  0.03  0.00  0.97  0.00  0.00  0.00  0.08  0.00
  YSB1154YSB6556          1.00   0.17  0.00  0.00  0.83  0.00  0.00  0.00  0.03  0.00
  YSB1171HS02004479       1.00   0.01  0.00  0.00  0.98  0.00  0.00  0.00  0.16  0.00
  YSB1174YSB1171          1.00   0.02  0.05  0.00  0.94  0.00  0.00  0.00  0.00  0.00
  YSB6556YSB1171          1.00   0.01  0.16  0.00  0.83  0.00  0.00  0.00  0.00  0.00
  
  
  *************************
  Conduit Surcharge Summary
  *************************
  
  ----------------------------------------------------------------------------
                                                           Hours        Hours 
                         --------- Hours Full --------   Above Full   Capacity
  Conduit                Both Ends  Upstream  Dnstream   Normal Flow   Limited
  ----------------------------------------------------------------------------
  HS02004478WS02006287        0.20      0.20      0.33      0.01         0.01
  HS02004479HS02004480        0.34      0.34      0.36      0.01         0.01
  HS02004480HS02004478        0.29      0.34      0.29      1.04         0.29
  HS02004770HS02004777        0.27      0.27      0.28      0.09         0.07
  HS02004777HS02004785        0.23      0.23      0.28      0.01         0.01
  HS02004785HS02004788        0.21      0.23      0.21      0.80         0.21
  HS02004788HS02004792        0.21      0.21      0.31      0.01         0.01
  HS02004792HS02004799        0.31      0.31      0.39      0.01         0.01
  HS02004799HS02004480        0.34      0.34      0.39      0.44         0.01
  HS02004802HS02004478        0.29      0.29      0.35      0.01         0.01
  HS02004807HS02004802        0.33      0.33      0.34      0.01         0.01
  HS02004817HS02004807        0.33      0.33      0.68      0.01         0.01
  HS02004817HS02004824        0.22      0.22      0.68      0.01         0.01
  HS02004824HS02004830        0.20      0.20      0.22      0.01         0.01
  HS02004830HS02004837        0.16      0.16      0.20      0.01         0.01
  HS02004837HS02004842        0.16      0.16      0.27      0.01         0.01
  HS02004842HS02004848        0.12      0.12      0.27      0.01         0.01
  HS02004848HS02004852        0.11      0.12      0.14      0.03         0.01
  HS02004852HS02004856        0.13      0.14      0.16      0.03         0.01
  HS02004856HS02004862        0.12      0.12      0.16      0.02         0.01
  HS02004862HS02004870        0.16      0.16      0.17      0.02         0.01
  HS02004870HS02004876        0.17      0.17      0.23      0.01         0.01
  HS02004876HS02004881        0.20      0.23      0.20      0.83         0.20
  HS02004881HS02006253        0.20      0.20      1.32      0.01         0.01
  HS02004901HS02004770        0.27      0.27      0.28      0.01         0.01
  WS02003072WS02003073        0.01      0.01      0.01      1.72         0.01
  WS02004401WS02004402        1.16      1.16      1.17      0.80         0.79
  WS02004402WS02004403        1.17      1.17      1.18      1.16         1.15
  WS02004403WS02004404        1.18      1.18      1.35      0.01         0.01
  WS02004404WS02004405        1.31      1.35      1.31      2.98         1.31
  WS02004405WS02004406        1.25      1.31      1.25      1.42         1.25
  WS02004406WS02004407        0.01      0.01      1.25      0.01         0.01
  WS02004407WS02004409        0.01      0.01      0.52      0.01         0.01
  WS02004409WS02004410        0.50      0.52      0.50      0.90         0.50
  WS02004410WS02004411        0.44      0.50      0.44      1.08         0.44
  WS02004411WS02004412        0.38      0.44      0.38      1.15         0.38
  WS02004412WS02004413        0.38      0.38      0.73      0.01         0.01
  WS02004413WS02003067        0.01      0.01      0.73      0.01         0.01
  WS02006109WS02006110        1.39      1.40      1.52      1.41         0.01
  WS02006110WS02006113        0.66      0.66      1.52      0.26         0.01
  WS02006111WS02006112        0.65      0.66      1.64      0.01         0.01
  WS02006112WS02006115        0.92      0.92      1.44      0.01         0.01
  WS02006113WS02006111        0.66      0.66      0.66      0.79         0.66
  WS02006115WS02006116        0.96      0.96      0.97      0.90         0.88
  WS02006116WS02004401        1.16      1.16      1.16      1.12         1.08
  WS02006228WS02006109        1.50      1.52      1.50      1.80         1.50
  WS02006229WS02006228        1.49      1.50      1.49      1.59         1.49
  WS02006230WS02006229        1.54      1.55      1.54      2.89         0.98
  WS02006231WS02006230        1.35      1.35      1.36      2.66         0.52
  WS02006232WS02006231        1.36      1.36      1.41      0.01         0.08
  WS02006234WS02006232        1.38      1.38      1.41      0.01         0.01
  WS02006235WS02006234        1.37      1.37      1.38      2.53         0.50
  WS02006238WS02006235        1.38      1.38      1.39      0.01         0.18
  WS02006239WS02006238        1.38      1.38      1.38      0.79         0.40
  WS02006240WS02006239        1.36      1.36      1.37      0.75         0.35
  WS02006242WS02006240        1.36      1.36      1.37      1.07         0.45
  WS02006243WS02006242        1.35      1.35      1.36      0.01         0.01
  WS02006245WS02006243        1.34      1.34      1.35      0.25         0.26
  WS02006247WS02006245        1.34      1.34      1.34      2.22         0.68
  WS02006248WS02006247        1.34      1.34      1.34      0.01         0.01
  WS02006249WS02006248        1.33      1.33      1.33      1.63         0.01
  WS02006251WS02006249        1.33      1.33      1.33      1.35         1.31
  WS02006252WS02006251        1.31      1.31      1.32      1.00         0.01
  WS02006253WS02006251        1.33      1.33      1.33      0.43         0.01
  WS02006256WS02006235        2.72      2.73      4.78      0.56         0.01
  WS02006280WS02006229        0.41      0.41      0.46      0.01         0.01
  WS02006284WS02006280        0.35      0.35      0.40      0.01         0.01
  WS02006287WS02006284        0.28      0.28      0.36      0.01         0.01
  YS02001580YS02001583        0.21      0.21      0.26      0.01         0.01
  YS02001583YS02001586        0.22      0.22      0.38      0.01         0.01
  YS02001586YS02001590        0.38      0.38      0.43      0.01         0.01
  YS02001590YS02001593        0.43      0.43      0.44      0.45         0.01
  YS02001593YS02001596        0.44      0.44      0.51      0.01         0.01
  YS02001596YS02001600        0.53      0.53      0.59      0.01         0.01
  YS02001600YS02001601        0.63      0.63      0.85      0.01         0.01
  YS02001601YS02001602        0.76      0.76      0.88      0.61         0.01
  YS02001602YS02001605        0.72      0.72      0.76      1.61         0.01
  YS02001605YS02001607        0.69      0.72      0.69      0.81         0.69
  YS02001607YS02001610        0.39      0.39      0.41      0.01         0.01
  YS02001610YS02001613        0.38      0.38      0.41      0.01         0.01
  YS02001613YS02001616        0.35      0.35      0.38      0.01         0.01
  YS02001616YS02001619        0.34      0.34      0.35      0.01         0.01
  YS02001619YS02001622        0.33      0.34      0.33      0.45         0.33
  YS02001622YS02001625        0.33      0.33      0.47      0.01         0.01
  YS02001625YS02001629        0.28      0.28      0.47      0.01         0.01
  YS02001629YS02163301        0.46      0.46      0.47      0.24         0.20
  YS02001633YS02163601        0.48      0.48      0.50      0.35         0.34
  YS02001641YS02001644        0.40      0.43      0.40      0.92         0.40
  YS02001644YS02001647        0.21      0.21      0.40      0.03         0.01
  YS02001647YS02001649        0.21      0.21      0.32      0.01         0.01
  YS02001649YS02001757        0.30      0.32      0.35      0.18         0.14
  YS02001652YS02001649        0.11      0.11      0.32      0.01         0.01
  YS02001655YS02001652        0.01      0.01      0.08      0.01         0.01
  YS02001754YS02001757        0.01      0.01      0.35      0.01         0.01
  YS02001757CaochengTiaoxuchi        0.28      0.35      0.73      0.17         0.07
  YS02001759YS02001757        0.27      0.27      0.35      0.01         0.01
  YS02001762YS02001759        0.23      0.23      0.27      0.01         0.01
  YS02001765YS02001762        0.15      0.15      0.23      0.01         0.01
  YS02001767YS02001765        0.11      0.11      0.15      0.01         0.01
  YS02001770YS02001767        0.11      0.13      0.11      0.29         0.08
  YS02001774YS02001770        0.08      0.08      0.21      0.01         0.01
  YS02001779YS02001774        0.01      0.01      0.21      0.01         0.01
  YS02001783YS02001784        0.26      0.28      0.27      0.38         0.26
  YS02001784YS02001785        0.16      0.27      0.16      0.52         0.16
  YS02001786YS02001788        0.07      0.16      0.07      0.45         0.07
  YS02001788YS02001790        0.07      0.07      0.13      0.01         0.01
  YS02001790YS02001791        0.12      0.13      0.13      0.24         0.07
  YS02001791YS02001793        0.13      0.13      0.18      0.01         0.01
  YS02001793JiankangQianchi        0.16      0.16      4.57      0.01         0.01
  YS02001882YS02001884        0.23      0.23      0.24      0.01         0.01
  YS02001884YS02001887        0.26      0.26      0.27      0.01         0.01
  YS02001887YS02001890        0.28      0.28      0.29      0.01         0.01
  YS02001890YS02001895        0.22      0.22      0.31      0.01         0.01
  YS02001895YS02001898        0.21      0.21      0.22      0.01         0.01
  YS02001898YS02001901        0.23      0.23      0.26      0.01         0.01
  YS02001901YS02001904        0.25      0.25      0.26      0.01         0.01
  YS02001904YS02001907        0.25      0.25      0.44      0.01         0.01
  YS02001907YS02006553        0.53      0.53      0.57      0.01         0.01
  YS02001910YS02001907        0.30      0.30      0.42      0.01         0.01
  YS02001915YS02001910        0.23      0.23      0.30      0.01         0.01
  YS02001918YS02001915        0.15      0.15      0.23      0.01         0.01
  YS02001920YS02001918        0.15      0.15      0.16      0.01         0.01
  YS02001923YS02001920        0.08      0.08      0.16      0.01         0.01
  YS02001926YS02001923        0.01      0.01      0.01      0.01         0.01
  YS02001929YS02001926        0.01      0.01      0.01      0.01         0.01
  YS02006553YS02006556        0.36      0.36      0.44      0.01         0.01
  YS02006556YS02006558        0.41      0.41      0.44      0.01         0.01
  YS02006558YS02006561        0.18      0.36      0.18      0.49         0.18
  YS02006561YS02001783        0.12      0.12      0.28      0.01         0.01
  YS02163301YS02001633        0.47      0.47      0.49      0.01         0.01
  YS02163601YS02164001        0.44      0.44      0.50      0.19         0.01
  YS02164001YS02001641        0.43      0.44      0.43      0.53         0.43
  YSB1154YSB6556              0.38      0.38      0.46      0.01         0.01
  YSB1171HS02004479           0.31      0.31      0.46      0.01         0.01
  YSB1174YSB1171              0.41      0.41      0.61      0.01         0.01
  YSB6556YSB1171              0.38      0.38      0.71      0.01         0.01
  
  
  ***************
  Pumping Summary
  ***************
  
  ---------------------------------------------------------------------------------------------------------
                                                  Min       Avg       Max     Total     Power    % Time Off
                        Percent   Number of      Flow      Flow      Flow    Volume     Usage    Pump Curve
  Pump                 Utilized   Start-Ups       LPS       LPS       LPS  10^6 ltr     Kw-hr    Low   High
  ---------------------------------------------------------------------------------------------------------
  CC-R1                   16.69           1      0.00    683.00    683.00     2.463     43.70    0.0   42.2
  CC-R2                   16.69           1      0.00    683.00    683.00     2.463     43.70    0.0   42.2
  CC-S1                   38.94           1      0.00    200.00    200.00     1.682     11.59    0.0    1.2
  CC-S2                   16.69           1      0.00    200.00    200.00     0.721      4.91    0.0    2.8
  JK-R1                    8.35           3      0.00    682.91   1000.00     1.153      7.63    0.0    0.0
  JK-R2                    8.35           3      0.00    682.91   1000.00     1.153      7.63    0.0    0.0
  JK-S                    13.93           4      0.00    247.57    300.00     0.710     13.39    0.0    0.0
  XR-1                    97.21           1      0.00     95.00     95.00     1.995      8.80    0.0    0.0
  XR-2                    91.94           1      0.00     95.00     95.00     1.887      7.97    0.0    0.0
  XR-3                     0.00           0      0.00      0.00      0.00     0.000      0.00    0.0    0.0
  XR-4                     0.00           0      0.00      0.00      0.00     0.000      0.00    0.0    0.0
  

  Analysis begun on:  Wed Aug 24 17:03:00 2022
  Analysis ended on:  Wed Aug 24 17:03:03 2022
  Total elapsed time: 00:00:03