
  OWA STORM WATER MANAGEMENT MODEL - VERSION v5.1.14 (OWA 2022-07-31)
  --------------------------------------------------------------

  WARNING 04: minimum elevation drop used for Conduit WS02004404WS02004405
  WARNING 03: negative offset ignored for Link YS02001904YS02001907
  
  *********************************************************
  NOTE: The summary statistics displayed in this report are
  based on results found at every computational time step,  
  not just on results from each reporting time step.
  *********************************************************
  
  ****************
  Analysis Options
  ****************
  Flow Units ............... LPS
  Process Models:
    Rainfall/Runoff ........ YES
    RDII ................... NO
    Snowmelt ............... NO
    Groundwater ............ NO
    Flow Routing ........... YES
    Ponding Allowed ........ NO
    Water Quality .......... NO
  Infiltration Method ...... HORTON
  Flow Routing Method ...... DYNWAVE
  Surcharge Method ......... EXTRAN
  Starting Date ............ 01/01/2000 00:00:00
  Ending Date .............. 01/01/2000 06:00:00
  Antecedent Dry Days ...... 8.0
  Report Time Step ......... 00:01:00
  Wet Time Step ............ 00:01:00
  Dry Time Step ............ 00:01:00
  Routing Time Step ........ 30.00 sec
  Variable Time Step ....... YES
  Maximum Trials ........... 8
  Number of Threads ........ 4
  Head Tolerance ........... 0.001500 m
  
  
  **************************        Volume         Depth
  Runoff Quantity Continuity     hectare-m            mm
  **************************     ---------       -------
  Total Precipitation ......         1.484        24.498
  Evaporation Loss .........         0.000         0.000
  Infiltration Loss ........         0.196         3.242
  Surface Runoff ...........         1.224        20.208
  Final Storage ............         0.064         1.055
  Continuity Error (%) .....        -0.027
  
  
  **************************        Volume        Volume
  Flow Routing Continuity        hectare-m      10^6 ltr
  **************************     ---------     ---------
  Dry Weather Inflow .......         0.472         4.722
  Wet Weather Inflow .......         1.225        12.245
  Groundwater Inflow .......         0.000         0.000
  RDII Inflow ..............         0.000         0.000
  External Inflow ..........         0.078         0.784
  External Outflow .........         1.518        15.180
  Flooding Loss ............         0.299         2.987
  Evaporation Loss .........         0.000         0.000
  Exfiltration Loss ........         0.000         0.000
  Initial Stored Volume ....         0.303         3.031
  Final Stored Volume ......         0.326         3.263
  Continuity Error (%) .....        -3.117
  
  
  *************************
  Highest Continuity Errors
  *************************
  Node JK-storage (-21.85%)
  Node YS02001884 (5.94%)
  Node HS02004842 (4.08%)
  Node YS02001774 (3.90%)
  Node YS02001583 (-3.18%)
  
  
  ***************************
  Time-Step Critical Elements
  ***************************
  Link WS02006252WS02006251 (49.07%)
  Link WS02006280WS02006229 (25.10%)
  Link WS02004404WS02004405 (7.20%)
  Link WS02006238WS02006235 (4.42%)
  Link YS02001793JiankangQianchi (2.57%)
  
  
  ********************************
  Highest Flow Instability Indexes
  ********************************
  Link WS02006113WS02006111 (32)
  Link WS02006111WS02006112 (14)
  Link WS02006252WS02006251 (10)
  Link WS02004404WS02004405 (8)
  Link WS02006238WS02006235 (8)
  
  
  *************************
  Routing Time Step Summary
  *************************
  Minimum Time Step           :     0.50 sec
  Average Time Step           :     1.69 sec
  Maximum Time Step           :    30.00 sec
  Percent in Steady State     :    -0.00
  Average Iterations per Step :     2.65
  Percent Not Converging      :     6.83
  
  
  ***************************
  Subcatchment Runoff Summary
  ***************************
  
  ------------------------------------------------------------------------------------------------------------------------------
                            Total      Total      Total      Total     Imperv       Perv      Total       Total     Peak  Runoff
                           Precip      Runon       Evap      Infil     Runoff     Runoff     Runoff      Runoff   Runoff   Coeff
  Subcatchment                 mm         mm         mm         mm         mm         mm         mm    10^6 ltr      LPS
  ------------------------------------------------------------------------------------------------------------------------------
  sub0                      24.50       0.00       0.00       0.85      21.52       0.86      22.38        0.02    14.03   0.914
  sub1                      24.50       0.00       0.00       1.44      20.51       1.26      21.77        0.14    79.94   0.888
  sub10                     24.50       0.00       0.00       1.02      21.21       0.95      22.16        0.24   141.65   0.904
  sub11                     24.50       0.00       0.00       1.00      21.24       0.96      22.20        0.26   165.52   0.906
  sub12                     24.50       0.00       0.00       1.63      20.12       1.56      21.68        0.19   136.86   0.885
  sub14                     24.50       0.00       0.00       1.14      21.00       1.06      22.06        0.21   128.13   0.901
  sub15                     24.50       0.00       0.00       4.39      16.15       2.97      19.11        0.33   175.83   0.780
  sub16                     24.50       0.00       0.00       4.57      15.49       3.51      19.00        0.20   123.78   0.776
  sub17                     24.50       0.00       0.00       4.46      15.72       3.39      19.10        0.16   100.39   0.780
  sub2                      24.50       0.00       0.00       6.06      14.48       3.01      17.49        0.16    73.77   0.714
  sub22                     24.50       0.00       0.00       6.58      13.16       3.96      17.12        1.08   576.70   0.699
  sub23                     24.50       0.00       0.00       5.42      14.55       3.65      18.20        0.87   490.08   0.743
  sub3                      24.50       0.00       0.00       6.41      14.42       2.66      17.08        0.38   157.45   0.697
  sub4                      24.50       0.00       0.00       1.58      20.24       1.11      21.36        0.45   176.94   0.872
  sub5                      24.50       0.00       0.00       0.89      21.43       0.83      22.26        0.25   141.46   0.909
  sub60                     24.50       0.00       0.00       1.53      20.32       1.41      21.73        0.29   185.03   0.887
  sub61                     24.50       0.00       0.00       2.21      19.18       1.95      21.13        0.39   251.81   0.862
  sub62                     24.50       0.00       0.00       1.02      21.20       0.94      22.14        0.61   342.25   0.904
  sub63                     24.50       0.00       0.00       4.05      16.40       3.05      19.45        0.44   262.81   0.794
  sub64                     24.50       0.00       0.00       2.05      19.56       1.62      21.18        0.51   258.61   0.865
  sub65                     24.50       0.00       0.00       1.78      19.99       1.41      21.40        0.59   290.18   0.873
  sub66                     24.50       0.00       0.00       4.80      16.23       2.31      18.54        0.86   355.65   0.757
  sub67                     24.50       0.00       0.00       0.99      21.27       0.97      22.24        0.41   297.55   0.908
  sub68                     24.50       0.00       0.00       1.83      19.84       1.60      21.44        0.59   353.03   0.875
  sub69                     24.50       0.00       0.00       1.54      20.64       2.14      22.78        0.84   403.41   0.930
  sub7                      24.50       0.00       0.00       1.13      21.02       1.08      22.10        0.07    49.67   0.902
  sub70                     24.50       0.00       0.00       4.91      15.90       3.42      19.33        0.56   208.97   0.789
  sub71                     24.50       0.00       0.00       1.04      21.13       0.92      22.05        0.58   286.50   0.900
  sub72                     24.50       0.00       0.00       0.93      21.27       0.79      22.06        0.30   135.91   0.900
  sub8                      24.50       0.00       0.00       1.14      21.00       1.07      22.07        0.14    88.31   0.901
  sub9                      24.50       0.00       0.00       1.14      21.00       1.07      22.07        0.11    65.52   0.901
  
  
  ******************
  Node Depth Summary
  ******************
  
  ---------------------------------------------------------------------------------
                                 Average  Maximum  Maximum  Time of Max    Reported
                                   Depth    Depth      HGL   Occurrence   Max Depth
  Node                 Type       Meters   Meters   Meters  days hr:min      Meters
  ---------------------------------------------------------------------------------
  HS02004478           JUNCTION     0.11     0.80    10.02     0  01:55        0.79
  HS02004479           JUNCTION     0.18     0.96    10.16     0  01:54        0.95
  HS02004480           JUNCTION     0.15     0.92    10.16     0  01:55        0.91
  HS02004770           JUNCTION     0.15     0.80    10.63     0  01:52        0.75
  HS02004777           JUNCTION     0.17     0.79    10.59     0  01:52        0.75
  HS02004785           JUNCTION     0.09     0.62    10.52     0  01:55        0.62
  HS02004788           JUNCTION     0.06     0.59    10.49     0  01:55        0.59
  HS02004792           JUNCTION     0.09     1.60    11.12     0  01:50        0.92
  HS02004799           JUNCTION     0.20     1.20    10.41     0  01:50        1.05
  HS02004802           JUNCTION     0.19     0.98    10.11     0  01:50        0.89
  HS02004807           JUNCTION     0.16     1.10    10.27     0  01:50        0.86
  HS02004817           JUNCTION     0.46     1.22    10.07     0  01:50        1.18
  HS02004824           JUNCTION     0.07     0.63    10.03     0  01:55        0.63
  HS02004830           JUNCTION     0.07     0.56    10.03     0  01:55        0.55
  HS02004837           JUNCTION     0.05     0.44    10.02     0  01:55        0.43
  HS02004842           JUNCTION     0.35     0.75    10.02     0  01:55        0.75
  HS02004848           JUNCTION     0.03     0.38     9.99     0  01:55        0.38
  HS02004852           JUNCTION     0.04     0.41     9.92     0  01:56        0.41
  HS02004856           JUNCTION     0.08     0.44     9.87     0  01:56        0.44
  HS02004862           JUNCTION     0.05     0.39     9.77     0  01:56        0.39
  HS02004870           JUNCTION     0.04     0.34     9.63     0  01:55        0.34
  HS02004876           JUNCTION     0.07     0.48     9.51     0  01:57        0.48
  HS02004881           JUNCTION     0.02     0.34     9.37     0  01:57        0.33
  HS02004901           JUNCTION     0.15     0.82    10.64     0  01:52        0.76
  WS02001211           JUNCTION     0.63     0.81     5.65     0  01:56        0.81
  WS02001212           JUNCTION     0.37     0.57     5.63     0  01:55        0.55
  WS02001213           JUNCTION     0.59     0.87     5.63     0  01:54        0.87
  WS02003059           JUNCTION     0.65     0.93     5.61     0  01:57        0.92
  WS02003060           JUNCTION     0.36     0.66     5.59     0  01:58        0.66
  WS02003066           JUNCTION     0.21     0.43     5.99     0  01:50        0.43
  WS02003067           JUNCTION     0.52     0.91     6.23     0  01:49        0.90
  WS02003069           JUNCTION     0.41     0.74     5.33     0  01:58        0.74
  WS02003072           JUNCTION     0.47     0.78     5.15     0  01:57        0.78
  WS02003073           JUNCTION     0.28     0.50     4.56     0  01:58        0.50
  WS02004138           JUNCTION     0.14     0.14     7.39     0  00:29        0.14
  WS02004139           JUNCTION     0.57     0.73     5.64     0  01:55        0.73
  WS02004401           JUNCTION     0.70     2.10     8.10     0  01:47        1.97
  WS02004402           JUNCTION     0.73     2.03     7.99     0  01:47        1.95
  WS02004403           JUNCTION     0.74     1.95     7.88     0  01:47        1.88
  WS02004404           JUNCTION     0.81     1.93     7.78     0  01:47        1.87
  WS02004405           JUNCTION     0.80     1.84     7.69     0  01:47        1.78
  WS02004406           JUNCTION     0.80     1.55     7.38     0  01:47        1.51
  WS02004407           JUNCTION     0.22     0.74     7.05     0  01:52        0.74
  WS02004409           JUNCTION     0.47     1.26     7.03     0  01:52        1.26
  WS02004410           JUNCTION     0.49     1.28     7.00     0  01:49        1.19
  WS02004411           JUNCTION     0.50     1.20     6.88     0  01:49        1.12
  WS02004412           JUNCTION     0.51     1.11     6.75     0  01:49        1.05
  WS02004413           JUNCTION     0.67     1.14     6.61     0  01:49        1.11
  WS02006109           JUNCTION     0.85     2.63     9.25     0  01:48        2.49
  WS02006110           JUNCTION     0.81     2.55     9.13     0  01:47        2.19
  WS02006111           JUNCTION     0.32     2.06     8.77     0  01:47        1.51
  WS02006112           JUNCTION     0.89     2.68     8.56     0  00:00        2.23
  WS02006113           JUNCTION     0.40     2.21     9.11     0  01:47        1.58
  WS02006115           JUNCTION     0.61     2.27     8.41     0  01:47        1.93
  WS02006116           JUNCTION     0.68     2.24     8.28     0  01:47        1.99
  WS02006228           JUNCTION     0.87     2.83     9.48     0  01:48        2.76
  WS02006229           JUNCTION     0.86     2.89     9.59     0  01:54        2.89
  WS02006230           JUNCTION     0.83     2.65     9.39     0  01:48        2.65
  WS02006231           JUNCTION     0.59     2.19     9.32     0  01:48        2.18
  WS02006232           JUNCTION     0.70     2.18     9.22     0  01:48        2.18
  WS02006234           JUNCTION     0.60     1.96     9.12     0  01:48        1.96
  WS02006235           JUNCTION     0.62     1.95     9.12     0  02:00        1.92
  WS02006238           JUNCTION     0.65     1.96     9.11     0  02:00        1.93
  WS02006239           JUNCTION     0.61     1.82     9.03     0  02:00        1.78
  WS02006240           JUNCTION     0.57     2.07     9.36     0  01:45        1.62
  WS02006242           JUNCTION     0.63     1.55     8.82     0  01:45        1.55
  WS02006243           JUNCTION     0.53     1.48     8.90     0  01:46        1.36
  WS02006245           JUNCTION     0.52     1.56     9.04     0  01:46        1.27
  WS02006247           JUNCTION     0.54     1.47     8.97     0  01:46        1.22
  WS02006248           JUNCTION     0.49     1.10     8.69     0  01:46        1.10
  WS02006249           JUNCTION     0.52     1.09     8.69     0  01:46        1.09
  WS02006251           JUNCTION     0.55     1.99     9.66     0  01:47        1.62
  WS02006252           JUNCTION     0.40     1.50     9.74     0  01:47        1.18
  WS02006253           JUNCTION     0.59     2.41    10.06     0  01:47        1.80
  WS02006256           JUNCTION     0.91     2.35     9.28     0  00:46        2.35
  WS02006280           JUNCTION     0.16     1.37     9.64     0  01:54        1.36
  WS02006284           JUNCTION     0.43     1.42     9.82     0  01:55        1.41
  WS02006287           JUNCTION     0.16     1.05    10.01     0  01:55        1.05
  WSF200               JUNCTION     0.20     0.49     5.73     0  01:50        0.49
  YS02001580           JUNCTION     0.02     0.96     9.50     0  01:54        0.54
  YS02001583           JUNCTION     0.04     0.99     9.49     0  01:54        0.60
  YS02001586           JUNCTION     0.09     1.13     9.30     0  01:54        0.92
  YS02001590           JUNCTION     0.17     1.37     9.23     0  01:54        1.18
  YS02001593           JUNCTION     0.11     1.29     9.15     0  01:54        1.15
  YS02001596           JUNCTION     0.16     1.66     9.08     0  01:54        1.55
  YS02001600           JUNCTION     0.20     1.86     8.99     0  01:54        1.81
  YS02001601           JUNCTION     0.37     2.06     8.90     0  01:53        2.06
  YS02001602           JUNCTION     0.30     1.84     8.74     0  01:54        1.80
  YS02001605           JUNCTION     0.27     1.64     8.54     0  01:54        1.58
  YS02001607           JUNCTION     0.25     1.34     8.19     0  01:54        1.24
  YS02001610           JUNCTION     0.29     1.38     8.18     0  01:54        1.28
  YS02001613           JUNCTION     0.25     1.33     8.17     0  01:54        1.23
  YS02001616           JUNCTION     0.20     1.24     8.15     0  01:54        1.15
  YS02001619           JUNCTION     0.19     1.20     8.13     0  01:54        1.13
  YS02001622           JUNCTION     0.17     1.18     8.08     0  01:54        1.13
  YS02001625           JUNCTION     0.35     1.40     8.00     0  01:54        1.39
  YS02001629           JUNCTION     0.25     1.41     7.96     0  01:53        1.41
  YS02001633           JUNCTION     0.31     1.41     7.86     0  01:54        1.41
  YS02001641           JUNCTION     0.30     1.17     7.60     0  01:54        1.15
  YS02001644           JUNCTION     0.30     1.09     7.52     0  01:54        1.07
  YS02001647           JUNCTION     0.13     0.71     7.32     0  01:54        0.70
  YS02001649           JUNCTION     0.16     0.81     7.20     0  01:55        0.81
  YS02001652           JUNCTION     0.09     0.61     7.21     0  01:55        0.59
  YS02001655           JUNCTION     0.05     0.35     7.20     0  01:55        0.33
  YS02001658           JUNCTION     0.04     0.23     7.37     0  01:50        0.22
  YS02001661           JUNCTION     0.10     0.29     7.69     0  01:50        0.29
  YS02001664           JUNCTION     0.04     0.19     8.12     0  01:50        0.19
  YS02001745           JUNCTION     0.04     0.18     7.70     0  01:50        0.18
  YS02001748           JUNCTION     0.04     0.21     7.28     0  01:50        0.20
  YS02001751           JUNCTION     0.04     0.20     7.08     0  01:50        0.20
  YS02001754           JUNCTION     0.07     0.46     7.07     0  01:56        0.45
  YS02001757           JUNCTION     0.17     0.80     7.06     0  01:56        0.80
  YS02001759           JUNCTION     0.14     0.71     7.07     0  01:56        0.70
  YS02001762           JUNCTION     0.13     0.68     7.08     0  01:56        0.67
  YS02001765           JUNCTION     0.11     0.63     7.08     0  01:57        0.63
  YS02001767           JUNCTION     0.12     0.60     7.09     0  01:57        0.60
  YS02001770           JUNCTION     0.13     0.61     7.11     0  01:57        0.61
  YS02001774           JUNCTION     0.17     0.68     7.11     0  01:57        0.68
  YS02001779           JUNCTION     0.04     0.42     7.11     0  01:57        0.42
  YS02001783           JUNCTION     0.14     0.81     6.95     0  01:57        0.80
  YS02001784           JUNCTION     0.16     0.90     6.97     0  02:09        0.81
  YS02001786           JUNCTION     0.14     0.80     6.83     0  02:09        0.79
  YS02001788           JUNCTION     0.10     0.80     6.77     0  02:10        0.80
  YS02001790           JUNCTION     0.13     1.96     7.60     0  02:07        1.08
  YS02001791           JUNCTION     0.09     2.72     8.19     0  02:07        1.18
  YS02001793           JUNCTION     0.08     2.15     6.98     0  02:07        1.78
  YS02001882           JUNCTION     0.16     0.86     7.57     0  01:55        0.86
  YS02001884           JUNCTION     0.23     0.95     7.57     0  01:55        0.95
  YS02001887           JUNCTION     0.31     1.03     7.56     0  01:56        1.02
  YS02001890           JUNCTION     0.34     1.05     7.56     0  01:55        1.05
  YS02001895           JUNCTION     0.14     0.81     7.56     0  01:56        0.81
  YS02001898           JUNCTION     0.15     0.82     7.56     0  01:56        0.82
  YS02001901           JUNCTION     0.22     0.95     7.56     0  01:56        0.95
  YS02001904           JUNCTION     0.21     0.93     7.56     0  01:56        0.93
  YS02001907           JUNCTION     0.50     1.27     7.56     0  01:56        1.27
  YS02001910           JUNCTION     0.30     1.06     7.57     0  01:57        1.06
  YS02001915           JUNCTION     0.17     0.86     7.58     0  01:57        0.86
  YS02001918           JUNCTION     0.07     0.52     7.58     0  01:56        0.51
  YS02001920           JUNCTION     0.15     0.58     7.58     0  01:57        0.57
  YS02001923           JUNCTION     0.04     0.32     7.58     0  01:56        0.32
  YS02001926           JUNCTION     0.09     0.30     7.75     0  01:55        0.30
  YS02001929           JUNCTION     0.04     0.17     7.87     0  01:55        0.17
  YS02006553           JUNCTION     0.50     1.26     7.55     0  01:56        1.26
  YS02006556           JUNCTION     0.47     1.22     7.53     0  01:56        1.22
  YS02006558           JUNCTION     0.52     1.25     7.52     0  01:56        1.25
  YS02006561           JUNCTION     0.08     0.41     7.07     0  01:57        0.41
  YS02163301           JUNCTION     0.26     1.40     7.92     0  01:54        1.40
  YS02163601           JUNCTION     0.35     1.33     7.73     0  01:54        1.33
  YS02164001           JUNCTION     0.29     1.20     7.66     0  01:54        1.20
  YSB1154              JUNCTION     0.28     1.13    10.19     0  01:54        1.11
  YSB1171              JUNCTION     0.45     1.27    10.17     0  01:54        1.26
  YSB1174              JUNCTION     0.25     1.06    10.17     0  01:54        1.05
  YSB6556              JUNCTION     0.20     1.00    10.17     0  01:54        1.00
  CC-1                 OUTFALL      0.00     0.00     0.00     0  00:00        0.00
  CC-2                 OUTFALL      0.00     0.00     0.00     0  00:00        0.00
  JK-1                 OUTFALL      0.00     0.00     0.00     0  00:00        0.00
  JK-2                 OUTFALL      0.00     0.00     0.00     0  00:00        0.00
  WSC                  OUTFALL      0.28     0.49     1.16     0  01:58        0.49
  CC-storage           STORAGE      0.73     1.32     6.82     0  02:17        1.32
  JK-storage           STORAGE      2.55     5.80     6.60     0  02:08        5.80
  XR-storage           STORAGE      7.54     8.66     6.66     0  06:00        8.66
  
  
  *******************
  Node Inflow Summary
  *******************
  
  -------------------------------------------------------------------------------------------------
                                  Maximum  Maximum                  Lateral       Total        Flow
                                  Lateral    Total  Time of Max      Inflow      Inflow     Balance
                                   Inflow   Inflow   Occurrence      Volume      Volume       Error
  Node                 Type           LPS      LPS  days hr:min    10^6 ltr    10^6 ltr     Percent
  -------------------------------------------------------------------------------------------------
  HS02004478           JUNCTION      0.00  1752.79     0  01:50           0        4.12      -0.014
  HS02004479           JUNCTION      0.00   280.18     0  01:50           0       0.451       0.122
  HS02004480           JUNCTION      0.00  1591.42     0  01:52           0        3.16       0.068
  HS02004770           JUNCTION    490.08   601.03     0  01:50       0.868        1.07       0.244
  HS02004777           JUNCTION      0.03   590.72     0  01:50    0.000648        1.07       0.458
  HS02004785           JUNCTION      0.15   596.13     0  01:52     0.00324        1.06       0.065
  HS02004788           JUNCTION    177.50   731.16     0  01:53       0.365        1.43       0.031
  HS02004792           JUNCTION    576.98  1260.64     0  01:50        1.09        2.51      -0.010
  HS02004799           JUNCTION    128.13  1339.60     0  01:53        0.21        2.72       0.085
  HS02004802           JUNCTION      0.00   338.76     0  02:03           0       0.969       0.412
  HS02004807           JUNCTION    165.52   323.89     0  02:04       0.258       0.985       0.403
  HS02004817           JUNCTION      0.60   256.22     0  02:07       0.013       0.756       2.189
  HS02004824           JUNCTION    176.99   240.85     0  02:08       0.447       0.825       0.073
  HS02004830           JUNCTION      0.15   222.61     0  01:51     0.00324       0.459       0.276
  HS02004837           JUNCTION    148.00   347.02     0  01:51       0.382       0.572       0.146
  HS02004842           JUNCTION      0.00   327.56     0  01:51           0       0.307       4.256
  HS02004848           JUNCTION    157.45   475.45     0  01:55       0.384        0.58       0.021
  HS02004852           JUNCTION      0.00   472.91     0  01:55           0       0.482       0.020
  HS02004856           JUNCTION     65.52   526.75     0  01:55       0.106       0.588       0.253
  HS02004862           JUNCTION     73.97   597.45     0  01:56       0.167       0.754       0.028
  HS02004870           JUNCTION     88.31   668.73     0  01:56       0.141       0.895       0.019
  HS02004876           JUNCTION     79.94   742.82     0  01:55       0.145        1.04       0.065
  HS02004881           JUNCTION     49.67   770.29     0  01:56      0.0745        1.11      -0.001
  HS02004901           JUNCTION    123.78   123.78     0  01:50       0.199       0.199       0.802
  WS02001211           JUNCTION      7.35   283.00     0  01:53       0.159        4.02       0.827
  WS02001212           JUNCTION      0.00   255.60     0  01:56           0        3.99       0.395
  WS02001213           JUNCTION      0.00   241.82     0  01:56           0        3.98       0.449
  WS02003059           JUNCTION      0.00   237.72     0  01:55           0        3.97       0.809
  WS02003060           JUNCTION     16.53  1427.95     0  01:57       0.357        10.6       0.141
  WS02003066           JUNCTION      0.00  1190.34     0  01:52           0        6.32       0.023
  WS02003067           JUNCTION      0.00  1184.72     0  01:52           0        6.33       0.070
  WS02003069           JUNCTION      0.32  1408.78     0  01:58     0.00691        10.6       0.147
  WS02003072           JUNCTION      0.00  1403.79     0  01:58           0        10.6       0.199
  WS02003073           JUNCTION      1.82  1402.30     0  01:59      0.0393        10.6       0.208
  WS02004138           JUNCTION      0.00   190.00     0  00:29           0        3.88       0.084
  WS02004139           JUNCTION      0.32   193.05     0  01:52     0.00693        3.89       0.689
  WS02004401           JUNCTION      0.00  1202.88     0  01:50           0        6.44       0.180
  WS02004402           JUNCTION      0.00  1203.27     0  01:50           0        6.43       0.173
  WS02004403           JUNCTION      0.00  1203.33     0  01:50           0        6.42       0.167
  WS02004404           JUNCTION      0.16  1203.78     0  01:50      0.0035        6.41       0.135
  WS02004405           JUNCTION      0.04  1219.56     0  01:48    0.000823        6.41       0.195
  WS02004406           JUNCTION      0.00  1234.69     0  01:48           0        6.39       0.342
  WS02004407           JUNCTION      0.00  1238.57     0  01:48           0        6.37       0.026
  WS02004409           JUNCTION      0.00  1212.68     0  01:48           0        6.36       0.051
  WS02004410           JUNCTION      0.00  1184.58     0  01:52           0        6.36       0.077
  WS02004411           JUNCTION      0.00  1184.48     0  01:52           0        6.36       0.095
  WS02004412           JUNCTION      0.00  1184.28     0  01:52           0        6.35       0.125
  WS02004413           JUNCTION      0.00  1184.55     0  01:52           0        6.34       0.215
  WS02006109           JUNCTION      1.23  1308.01     0  00:00      0.0266        6.26       0.183
  WS02006110           JUNCTION      0.00  1104.01     0  01:50           0        6.23      -0.562
  WS02006111           JUNCTION      0.00  1176.04     0  00:00           0        6.26      -0.612
  WS02006112           JUNCTION    100.39  2307.30     0  00:00       0.164        6.46      -0.007
  WS02006113           JUNCTION      0.00  1103.71     0  01:50           0        6.22      -0.719
  WS02006115           JUNCTION      0.00  2152.75     0  00:00           0        6.44       0.063
  WS02006116           JUNCTION      0.00  1202.32     0  01:50           0        6.44       0.019
  WS02006228           JUNCTION      0.00  1103.35     0  01:50           0        6.22       0.105
  WS02006229           JUNCTION      0.00  1703.90     0  01:55           0        6.83       0.108
  WS02006230           JUNCTION     10.28   619.63     0  01:55       0.222        3.33       0.096
  WS02006231           JUNCTION      0.00   459.32     0  02:40           0        3.02      -0.099
  WS02006232           JUNCTION      0.00   457.80     0  02:40           0        3.02       0.206
  WS02006234           JUNCTION      0.00   454.05     0  02:40           0        3.02      -0.117
  WS02006235           JUNCTION      0.00   451.96     0  02:40           0        3.08       0.123
  WS02006238           JUNCTION      0.00   418.12     0  03:15           0        2.77      -0.065
  WS02006239           JUNCTION      0.00   418.10     0  03:15           0        2.76      -0.053
  WS02006240           JUNCTION      0.00   418.07     0  03:15           0        2.74      -0.009
  WS02006242           JUNCTION      0.00   418.05     0  03:15           0        2.72       0.052
  WS02006243           JUNCTION      0.00   418.02     0  03:15           0        2.57      -0.032
  WS02006245           JUNCTION      0.00   417.99     0  03:15           0        2.56       0.122
  WS02006247           JUNCTION      0.00   417.94     0  03:15           0        2.56       0.014
  WS02006248           JUNCTION      0.00   417.86     0  03:15           0        2.68       0.021
  WS02006249           JUNCTION      0.00  1024.37     0  02:00           0        4.02       0.045
  WS02006251           JUNCTION      0.08  1015.63     0  02:00     0.00166        4.03      -0.023
  WS02006252           JUNCTION      0.00   400.00     0  02:00           0        2.89      -0.021
  WS02006253           JUNCTION     14.03   768.07     0  01:57      0.0181        1.14       0.055
  WS02006256           JUNCTION      0.00   300.00     0  01:50           0        0.72       0.048
  WS02006280           JUNCTION      0.00  1703.53     0  01:55           0        4.12      -0.006
  WS02006284           JUNCTION      0.10  1703.36     0  01:55     0.00207        4.12       0.030
  WS02006287           JUNCTION      0.00  1703.06     0  01:55           0        4.12       0.017
  WSF200               JUNCTION      0.00  1188.11     0  01:52           0        6.32       0.012
  YS02001580           JUNCTION      0.00    65.59     0  01:53           0      0.0039      -1.274
  YS02001583           JUNCTION      0.00    97.94     0  01:53           0      0.0152      -3.083
  YS02001586           JUNCTION    208.97   227.40     0  01:54       0.558        0.57       0.188
  YS02001590           JUNCTION      0.00   227.76     0  01:54           0       0.558      -0.007
  YS02001593           JUNCTION      0.00   227.86     0  01:54           0       0.558      -0.003
  YS02001596           JUNCTION      0.00   228.25     0  01:54           0       0.558      -0.010
  YS02001600           JUNCTION      0.00   228.55     0  01:54           0       0.558      -0.003
  YS02001601           JUNCTION    403.41   631.63     0  01:54       0.843         1.4       0.076
  YS02001602           JUNCTION      0.00   522.11     0  01:52           0        1.37       0.045
  YS02001605           JUNCTION      0.00   522.21     0  01:52           0        1.37       0.058
  YS02001607           JUNCTION      0.00   522.03     0  01:52           0        1.37       0.166
  YS02001610           JUNCTION      0.00   522.04     0  01:53           0        1.37       0.191
  YS02001613           JUNCTION      0.00   522.17     0  01:53           0        1.37       0.145
  YS02001616           JUNCTION      0.00   521.68     0  01:53           0        1.37       0.049
  YS02001619           JUNCTION    355.65   856.84     0  01:53       0.864        2.23       0.005
  YS02001622           JUNCTION      0.00   857.44     0  01:53           0        2.23       0.013
  YS02001625           JUNCTION      0.00   856.89     0  01:53           0        2.23       0.469
  YS02001629           JUNCTION      0.00   857.15     0  01:53           0        2.22       0.036
  YS02001633           JUNCTION    290.38  1158.00     0  01:54       0.594        2.81       0.141
  YS02001641           JUNCTION      0.00  1159.75     0  01:54           0        2.81       0.111
  YS02001644           JUNCTION    258.65  1418.40     0  01:54        0.51        3.32       0.112
  YS02001647           JUNCTION      0.00  1419.70     0  01:54           0         3.3       0.016
  YS02001649           JUNCTION      0.00  1655.04     0  01:55           0        3.75       0.018
  YS02001652           JUNCTION      0.00   268.40     0  01:50           0       0.443      -0.392
  YS02001655           JUNCTION      0.15   263.08     0  01:50     0.00332       0.445       0.331
  YS02001658           JUNCTION      0.00   262.51     0  01:50           0       0.441      -0.006
  YS02001661           JUNCTION      0.00   262.03     0  01:50           0       0.442       0.078
  YS02001664           JUNCTION    262.81   262.81     0  01:50       0.442       0.442       0.003
  YS02001745           JUNCTION    185.04   185.04     0  01:50       0.286       0.286       0.002
  YS02001748           JUNCTION      0.04   184.70     0  01:50    0.000972       0.287       0.004
  YS02001751           JUNCTION      0.01   185.39     0  01:50    0.000238       0.287       0.420
  YS02001754           JUNCTION      0.26   184.10     0  01:50     0.00562       0.291      -0.512
  YS02001757           JUNCTION      0.00  2263.71     0  01:55           0        5.05       0.097
  YS02001759           JUNCTION    251.85   486.95     0  01:53       0.389        1.01      -0.006
  YS02001762           JUNCTION      0.00   302.65     0  01:58           0        0.62       0.033
  YS02001765           JUNCTION      0.00   302.21     0  01:58           0        0.62       0.032
  YS02001767           JUNCTION      0.54   310.46     0  01:51      0.0116       0.621       0.053
  YS02001770           JUNCTION    342.40   342.40     0  01:50        0.61       0.633       0.011
  YS02001774           JUNCTION      0.00    32.71     0  01:48           0      0.0308       4.057
  YS02001779           JUNCTION      0.01    16.67     0  01:53    0.000108     0.00699       0.122
  YS02001783           JUNCTION      0.00   876.14     0  01:57           0         1.9       0.014
  YS02001784           JUNCTION      1.06   876.81     0  01:57      0.0229        1.93       0.020
  YS02001786           JUNCTION      0.06   876.91     0  01:57     0.00122        1.93       0.022
  YS02001788           JUNCTION      0.07   877.23     0  01:57     0.00153        1.93       0.023
  YS02001790           JUNCTION      0.15   876.73     0  01:58     0.00335        1.93      -0.006
  YS02001791           JUNCTION      0.00  1105.59     0  02:11           0        1.93       0.015
  YS02001793           JUNCTION      0.00  1250.49     0  02:11           0        1.93       0.013
  YS02001882           JUNCTION      0.00    24.09     0  01:48           0      0.0111       6.493
  YS02001884           JUNCTION      0.00    61.15     0  01:48           0      0.0438       6.318
  YS02001887           JUNCTION    298.00   298.00     0  01:50       0.424       0.454       1.032
  YS02001890           JUNCTION      0.00   252.66     0  01:51           0       0.416       1.278
  YS02001895           JUNCTION      0.00   247.26     0  01:51           0       0.411       0.459
  YS02001898           JUNCTION      0.00   230.84     0  01:51           0       0.409       0.080
  YS02001901           JUNCTION      0.00   216.59     0  01:55           0       0.412       0.809
  YS02001904           JUNCTION      0.00   212.03     0  01:56           0       0.422       0.716
  YS02001907           JUNCTION      0.00   608.66     0  01:59           0        1.36       1.346
  YS02001910           JUNCTION      0.00   419.54     0  01:58           0       0.941       0.770
  YS02001915           JUNCTION    286.52   424.46     0  01:58       0.577       0.943       0.194
  YS02001918           JUNCTION      0.00   154.86     0  01:58           0       0.366       0.096
  YS02001920           JUNCTION      2.87   146.78     0  01:56       0.062       0.367       0.312
  YS02001923           JUNCTION      0.04   135.01     0  01:55    0.000814       0.305       0.010
  YS02001926           JUNCTION      0.05   135.73     0  01:55     0.00113       0.304       0.131
  YS02001929           JUNCTION    135.91   135.91     0  01:55       0.303       0.303       0.005
  YS02006553           JUNCTION      0.00   609.07     0  01:59           0        1.35       0.888
  YS02006556           JUNCTION      0.00   609.27     0  01:59           0        1.36       0.614
  YS02006558           JUNCTION    353.91   876.75     0  01:57       0.609        1.94       0.185
  YS02006561           JUNCTION      0.00   876.82     0  01:57           0         1.9       0.003
  YS02163301           JUNCTION      0.00   868.16     0  01:54           0        2.22       0.082
  YS02163601           JUNCTION      0.11  1158.52     0  01:54     0.00238        2.81       0.192
  YS02164001           JUNCTION      0.00  1158.63     0  01:54           0        2.81       0.095
  YSB1154              JUNCTION    141.46   141.46     0  01:50       0.252       0.253       0.575
  YSB1171              JUNCTION      0.00   278.92     0  01:50           0        0.45       1.418
  YSB1174              JUNCTION    136.86   136.86     0  01:50        0.19        0.19       0.678
  YSB6556              JUNCTION      0.00   141.58     0  01:50           0       0.254       0.486
  CC-1                 OUTFALL       0.00   683.00     0  02:10           0        2.87       0.000
  CC-2                 OUTFALL       0.00     0.00     0  00:00           0           0       0.000 ltr
  JK-1                 OUTFALL       0.00  1000.00     0  01:50           0        1.16       0.000
  JK-2                 OUTFALL       0.00  1000.00     0  02:10           0       0.577       0.000
  WSC                  OUTFALL       0.00  1405.53     0  01:58           0        10.6       0.000
  CC-storage           STORAGE       0.00  2214.18     0  01:56           0        7.28      -0.293
  JK-storage           STORAGE       0.00  1678.90     0  02:11           0        2.08     -17.932
  XR-storage           STORAGE     200.00   200.00     0  00:00        4.32        4.92       0.001
  
  
  **********************
  Node Surcharge Summary
  **********************
  
  Surcharging occurs when water rises above the top of the highest conduit.
  ---------------------------------------------------------------------
                                               Max. Height   Min. Depth
                                   Hours       Above Crown    Below Rim
  Node                 Type      Surcharged         Meters       Meters
  ---------------------------------------------------------------------
  HS02004479           JUNCTION        0.16          0.156        0.894
  HS02004480           JUNCTION        0.20          0.207        0.893
  HS02004770           JUNCTION        0.08          0.100        0.620
  HS02004777           JUNCTION        0.09          0.087        0.693
  HS02004792           JUNCTION        0.17          0.900        0.000
  HS02004799           JUNCTION        0.27          0.498        0.562
  HS02004802           JUNCTION        0.21          0.271        0.939
  HS02004807           JUNCTION        0.19          0.402        0.818
  HS02004817           JUNCTION        0.58          0.522        1.218
  HS02004842           JUNCTION        0.10          0.054        1.466
  HS02004901           JUNCTION        0.09          0.117        0.603
  WS02004401           JUNCTION        1.07          1.102        0.558
  WS02004402           JUNCTION        1.08          1.033        0.707
  WS02004403           JUNCTION        1.09          0.947        1.083
  WS02004404           JUNCTION        1.30          0.931        1.849
  WS02004405           JUNCTION        1.23          0.837        1.963
  WS02004406           JUNCTION        1.18          0.549        1.901
  WS02004409           JUNCTION        0.43          0.260        2.100
  WS02004410           JUNCTION        0.40          0.282        2.258
  WS02004411           JUNCTION        0.34          0.203        2.327
  WS02004412           JUNCTION        0.28          0.111        2.199
  WS02004413           JUNCTION        0.64          0.145        2.055
  WS02006109           JUNCTION        1.72          1.814        0.006
  WS02006110           JUNCTION        1.59          1.637        0.213
  WS02006111           JUNCTION        0.56          1.254        0.616
  WS02006112           JUNCTION        1.65          1.680        0.000
  WS02006113           JUNCTION        0.56          1.413        0.517
  WS02006115           JUNCTION        0.85          1.260        0.990
  WS02006116           JUNCTION        0.91          1.180        1.110
  WS02006228           JUNCTION        1.71          1.998        0.202
  WS02006229           JUNCTION        0.36          0.714        0.356
  WS02006230           JUNCTION        1.37          1.570        0.000
  WS02006231           JUNCTION        1.58          1.482        0.048
  WS02006232           JUNCTION        1.65          1.480        0.000
  WS02006234           JUNCTION        1.60          1.240        0.000
  WS02006235           JUNCTION        1.62          1.244        0.046
  WS02006238           JUNCTION        1.62          1.245        0.185
  WS02006239           JUNCTION        1.61          1.080        0.210
  WS02006240           JUNCTION        1.60          1.360        0.030
  WS02006242           JUNCTION        1.61          0.820        0.000
  WS02006243           JUNCTION        1.59          0.770        0.000
  WS02006245           JUNCTION        1.58          0.850        0.000
  WS02006247           JUNCTION        1.58          0.760        0.000
  WS02006248           JUNCTION        1.57          0.380        0.000
  WS02006249           JUNCTION        1.57          0.390        0.000
  WS02006251           JUNCTION        1.55          0.964        0.216
  WS02006252           JUNCTION        1.55          1.100        0.000
  WS02006253           JUNCTION        1.55          1.373        1.107
  WS02006256           JUNCTION        4.59          2.050        0.000
  WS02006280           JUNCTION        0.29          0.321        0.459
  WS02006284           JUNCTION        0.22          0.138        0.662
  WS02006287           JUNCTION        0.11          0.051        0.839
  YS02001580           JUNCTION        0.01          0.356        0.094
  YS02001583           JUNCTION        0.01          0.353        0.147
  YS02001586           JUNCTION        0.19          0.510        0.000
  YS02001590           JUNCTION        0.28          0.718        0.032
  YS02001593           JUNCTION        0.28          0.668        0.172
  YS02001596           JUNCTION        0.37          0.933        0.137
  YS02001600           JUNCTION        0.48          1.184        0.006
  YS02001601           JUNCTION        0.74          1.440        0.000
  YS02001602           JUNCTION        0.65          1.238        0.032
  YS02001605           JUNCTION        0.61          1.038        0.142
  YS02001607           JUNCTION        0.20          0.337        0.343
  YS02001610           JUNCTION        0.23          0.381        0.299
  YS02001613           JUNCTION        0.19          0.325        0.375
  YS02001616           JUNCTION        0.14          0.239        0.371
  YS02001619           JUNCTION        0.13          0.204        0.406
  YS02001622           JUNCTION        0.12          0.178        0.442
  YS02001625           JUNCTION        0.32          0.399        0.381
  YS02001629           JUNCTION        0.01          0.031        0.439
  YS02001633           JUNCTION        0.33          0.387        0.673
  YS02001641           JUNCTION        0.23          0.167        0.933
  YS02001644           JUNCTION        0.16          0.091        0.829
  YS02001783           JUNCTION        0.02          0.006        1.594
  YS02001784           JUNCTION        0.01          0.099        1.391
  YS02001790           JUNCTION        0.05          1.157        0.000
  YS02001791           JUNCTION        0.05          1.920        0.000
  YS02001793           JUNCTION        0.07          1.148        1.452
  YS02001890           JUNCTION        0.02          0.005        0.755
  YS02001907           JUNCTION        0.31          0.261        0.689
  YS02001910           JUNCTION        0.12          0.064        1.036
  YS02006553           JUNCTION        0.32          0.263        0.927
  YS02006556           JUNCTION        0.23          0.177        1.173
  YS02006558           JUNCTION        0.22          0.151        1.249
  YS02163301           JUNCTION        0.31          0.401        0.629
  YS02163601           JUNCTION        0.35          0.332        0.748
  YS02164001           JUNCTION        0.25          0.202        0.898
  YSB1154              JUNCTION        0.35          0.429        0.971
  YSB1171              JUNCTION        0.35          0.418        0.682
  YSB1174              JUNCTION        0.30          0.363        0.887
  YSB6556              JUNCTION        0.25          0.303        0.797
  
  
  *********************
  Node Flooding Summary
  *********************
  
  Flooding refers to all water that overflows a node, whether it ponds or not.
  --------------------------------------------------------------------------
                                                             Total   Maximum
                                 Maximum   Time of Max       Flood    Ponded
                        Hours       Rate    Occurrence      Volume     Depth
  Node                 Flooded       LPS   days hr:min    10^6 ltr    Meters
  --------------------------------------------------------------------------
  HS02004792              0.01     79.72      0  01:50       0.000     0.000
  WS02006112              0.01   1153.65      0  00:00       0.035     0.000
  WS02006230              0.23    166.69      0  01:55       0.096     0.000
  WS02006232              0.03      2.73      0  01:48       0.000     0.000
  WS02006234              0.27    128.29      0  01:54       0.091     0.000
  WS02006242              0.34    246.20      0  01:45       0.144     0.000
  WS02006243              0.01    126.12      0  01:46       0.000     0.000
  WS02006245              0.01     89.63      0  01:46       0.000     0.000
  WS02006247              0.01    139.94      0  01:46       0.000     0.000
  WS02006248              0.57    346.89      0  01:52       0.539     0.000
  WS02006249              1.46    961.51      0  02:00       1.743     0.000
  WS02006252              0.01    110.31      0  02:00       0.000     0.000
  WS02006256              0.61    290.39      0  01:50       0.276     0.000
  YS02001586              0.01     17.25      0  01:54       0.000     0.000
  YS02001601              0.12    144.54      0  01:54       0.026     0.000
  YS02001790              0.01    249.00      0  02:07       0.000     0.000
  YS02001791              0.01    195.65      0  02:07       0.000     0.000
  JK-storage              0.03    527.06      0  02:10       0.053     0.000
  
  
  **********************
  Storage Volume Summary
  **********************
  
  --------------------------------------------------------------------------------------------------
                         Average     Avg  Evap Exfil       Maximum     Max    Time of Max    Maximum
                          Volume    Pcnt  Pcnt  Pcnt        Volume    Pcnt     Occurrence    Outflow
  Storage Unit           1000 m3    Full  Loss  Loss       1000 m3    Full    days hr:min        LPS
  --------------------------------------------------------------------------------------------------
  CC-storage               2.033      32     0     0         3.670      57       0  02:17    1083.00
  JK-storage               0.128      44     0     0         0.291     100       0  02:08    2374.92
  XR-storage               0.905      63     0     0         1.039      72       0  06:00     190.00
  
  
  ***********************
  Outfall Loading Summary
  ***********************
  
  -----------------------------------------------------------
                         Flow       Avg       Max       Total
                         Freq      Flow      Flow      Volume
  Outfall Node           Pcnt       LPS       LPS    10^6 ltr
  -----------------------------------------------------------
  CC-1                  20.35    683.00    683.00       2.872
  CC-2                   0.00      0.00      0.00       0.000
  JK-1                   8.72    660.71   1000.00       1.162
  JK-2                   5.57    487.33   1000.00       0.577
  WSC                   99.99    536.90   1405.53      10.569
  -----------------------------------------------------------
  System                26.93   2367.93   1405.53      15.180
  
  
  ********************
  Link Flow Summary
  ********************
  
  -----------------------------------------------------------------------------
                                 Maximum  Time of Max   Maximum    Max/    Max/
                                  |Flow|   Occurrence   |Veloc|    Full    Full
  Link                 Type          LPS  days hr:min     m/sec    Flow   Depth
  -----------------------------------------------------------------------------
  1                    CONDUIT   1405.53     0  01:58      3.64    0.49    0.49
  HS02004478WS02006287 CONDUIT   1703.06     0  01:55      2.59    0.48    0.93
  HS02004479HS02004480 CONDUIT    287.11     0  01:50      0.41    0.28    1.00
  HS02004480HS02004478 CONDUIT   1593.49     0  01:50      2.32    6.71    1.00
  HS02004770HS02004777 CONDUIT    590.69     0  01:50      0.90    1.08    1.00
  HS02004777HS02004785 CONDUIT    595.98     0  01:52      1.03    0.73    0.94
  HS02004785HS02004788 CONDUIT    560.98     0  01:53      1.36    4.23    0.86
  HS02004788HS02004792 CONDUIT    732.31     0  01:56      1.48    0.48    0.92
  HS02004792HS02004799 CONDUIT   1221.73     0  01:53      1.75    0.75    1.00
  HS02004799HS02004480 CONDUIT   1339.59     0  01:53      1.91    1.69    1.00
  HS02004802HS02004478 CONDUIT    354.24     0  02:05      0.70    0.31    1.00
  HS02004807HS02004802 CONDUIT    338.76     0  02:03      0.62    0.65    1.00
  HS02004817HS02004807 CONDUIT    256.37     0  02:07      0.42    0.15    1.00
  HS02004817HS02004824 CONDUIT    255.62     0  02:07      0.51    0.12    0.95
  HS02004824HS02004830 CONDUIT    222.46     0  01:51      0.65    0.29    0.85
  HS02004830HS02004837 CONDUIT    203.38     0  01:51      0.77    0.20    0.71
  HS02004837HS02004842 CONDUIT    327.56     0  01:51      0.62    0.20    0.81
  HS02004842HS02004848 CONDUIT    319.44     0  01:55      0.59    0.19    0.77
  HS02004848HS02004852 CONDUIT    472.91     0  01:55      1.22    0.53    0.56
  HS02004852HS02004856 CONDUIT    473.03     0  01:56      1.12    0.54    0.61
  HS02004856HS02004862 CONDUIT    527.18     0  01:56      1.39    0.53    0.54
  HS02004862HS02004870 CONDUIT    598.70     0  01:56      1.65    0.65    0.52
  HS02004870HS02004876 CONDUIT    669.60     0  01:55      1.75    0.44    0.58
  HS02004876HS02004881 CONDUIT    734.99     0  01:56      2.41    7.82    0.58
  HS02004881HS02006253 CONDUIT    760.48     0  01:57      1.54    0.15    0.74
  HS02004901HS02004770 CONDUIT    119.34     0  01:50      0.18    0.45    1.00
  WS02001211WS02001212 CONDUIT    255.60     0  01:56      0.54    0.20    0.67
  WS02001212WS02001213 CONDUIT    241.82     0  01:56      1.04    0.37    0.55
  WS02001213WS02003059 CONDUIT    237.72     0  01:55      0.47    0.39    0.87
  WS02003059WS02003060 CONDUIT    243.18     0  01:57      0.67    0.16    0.79
  WS02003060WS02003069 CONDUIT   1408.46     0  01:58      2.06    0.55    0.58
  WS02003066WSF200     CONDUIT   1188.11     0  01:52      3.51    0.20    0.36
  WS02003067WS02003066 CONDUIT   1190.34     0  01:52      1.92    0.38    0.56
  WS02003069WS02003072 CONDUIT   1403.79     0  01:58      1.85    0.68    0.64
  WS02003072WS02003073 CONDUIT   1400.48     0  01:59      2.00    3.02    0.60
  WS02004138WS02004139 CONDUIT    191.01     0  00:29      2.14    0.04    0.41
  WS02004139WS02001211 CONDUIT    275.66     0  01:53      0.53    0.35    0.59
  WS02004401WS02004402 CONDUIT   1203.27     0  01:50      2.07    1.44    1.00
  WS02004402WS02004403 CONDUIT   1203.33     0  01:50      1.84    1.73    1.00
  WS02004403WS02004404 CONDUIT   1203.62     0  01:50      1.66    0.87    1.00
  WS02004404WS02004405 CONDUIT   1219.52     0  01:48      1.85   11.95    1.00
  WS02004405WS02004406 CONDUIT   1234.69     0  01:48      1.73    2.44    1.00
  WS02004406WS02004407 CONDUIT   1238.57     0  01:48      2.01    0.55    0.87
  WS02004407WS02004409 CONDUIT   1212.68     0  01:48      2.02    0.43    0.87
  WS02004409WS02004410 CONDUIT   1184.58     0  01:52      1.51    1.53    1.00
  WS02004410WS02004411 CONDUIT   1184.48     0  01:52      1.51    1.62    1.00
  WS02004411WS02004412 CONDUIT   1184.28     0  01:52      1.51    1.68    1.00
  WS02004412WS02004413 CONDUIT   1184.55     0  01:52      1.51    0.79    1.00
  WS02004413WS02003067 CONDUIT   1184.72     0  01:52      1.87    0.51    0.75
  WS02006109WS02006110 CONDUIT   1306.78     0  00:00      3.15    2.51    1.00
  WS02006110WS02006113 CONDUIT   1103.71     0  01:50      2.20    1.00    1.00
  WS02006111WS02006112 CONDUIT   2307.30     0  00:00      9.18    1.10    1.00
  WS02006112WS02006115 CONDUIT   2152.75     0  00:00      2.85    1.27    1.00
  WS02006113WS02006111 CONDUIT   1176.04     0  00:00      2.66    1.41    1.00
  WS02006115WS02006116 CONDUIT   1202.32     0  01:50      1.81    1.54    1.00
  WS02006116WS02004401 CONDUIT   1202.88     0  01:50      2.21    1.66    1.00
  WS02006228WS02006109 CONDUIT   1103.08     0  01:50      2.19    4.82    1.00
  WS02006229WS02006228 CONDUIT   1103.35     0  01:50      2.20    3.65    1.00
  WS02006230WS02006229 CONDUIT    609.35     0  01:55      1.58   13.56    1.00
  WS02006231WS02006230 CONDUIT    460.35     0  02:40      1.30    6.98    1.00
  WS02006232WS02006231 CONDUIT    459.32     0  02:40      1.19    0.96    1.00
  WS02006234WS02006232 CONDUIT    457.80     0  02:40      1.19    0.93    1.00
  WS02006235WS02006234 CONDUIT    454.05     0  02:40      1.18    4.79    1.00
  WS02006238WS02006235 CONDUIT    418.16     0  03:15      1.33    0.93    1.00
  WS02006239WS02006238 CONDUIT    418.12     0  03:15      1.09    1.34    1.00
  WS02006240WS02006239 CONDUIT    418.10     0  03:15      1.09    1.32    1.00
  WS02006242WS02006240 CONDUIT    418.07     0  03:15      1.09    1.66    1.00
  WS02006243WS02006242 CONDUIT    418.05     0  03:15      1.13    0.89    1.00
  WS02006245WS02006243 CONDUIT    418.02     0  03:15      1.13    1.24    1.00
  WS02006247WS02006245 CONDUIT    417.99     0  03:15      1.09    3.31    1.00
  WS02006248WS02006247 CONDUIT    417.94     0  03:15      1.12    0.91    1.00
  WS02006249WS02006248 CONDUIT    417.86     0  03:15      1.15    2.29    1.00
  WS02006251WS02006249 CONDUIT   1024.37     0  02:00      2.66    2.95    1.00
  WS02006252WS02006251 CONDUIT    405.99     0  02:00      3.28    1.49    1.00
  WS02006253WS02006251 CONDUIT    768.24     0  01:57      2.00    2.30    1.00
  WS02006256WS02006235 CONDUIT    287.94     0  04:41      4.17    3.05    1.00
  WS02006280WS02006229 CONDUIT   1703.90     0  01:55      4.29    0.36    1.00
  WS02006284WS02006280 CONDUIT   1703.53     0  01:55      3.02    0.71    1.00
  WS02006287WS02006284 CONDUIT   1703.27     0  01:55      2.78    0.79    1.00
  WSF200WS02003060     CONDUIT   1241.54     0  01:50      2.64    0.28    0.48
  YS02001580YS02001583 CONDUIT     65.59     0  01:53      0.51    0.25    1.00
  YS02001583YS02001586 CONDUIT     88.18     0  01:52      0.39    0.13    1.00
  YS02001586YS02001590 CONDUIT    227.76     0  01:54      1.28    0.40    1.00
  YS02001590YS02001593 CONDUIT    227.86     0  01:54      1.01    1.43    1.00
  YS02001593YS02001596 CONDUIT    228.25     0  01:54      1.66    0.36    1.00
  YS02001596YS02001600 CONDUIT    228.55     0  01:54      1.16    0.44    1.00
  YS02001600YS02001601 CONDUIT    228.65     0  01:54      0.81    0.39    1.00
  YS02001601YS02001602 CONDUIT    522.11     0  01:52      1.85    1.89    1.00
  YS02001602YS02001605 CONDUIT    522.21     0  01:52      1.85   11.05    1.00
  YS02001605YS02001607 CONDUIT    522.03     0  01:52      1.85    2.86    1.00
  YS02001607YS02001610 CONDUIT    522.04     0  01:53      0.71    0.50    1.00
  YS02001610YS02001613 CONDUIT    522.17     0  01:53      0.68    0.60    1.00
  YS02001613YS02001616 CONDUIT    521.68     0  01:53      0.70    0.45    1.00
  YS02001616YS02001619 CONDUIT    517.60     0  02:00      0.72    0.90    1.00
  YS02001619YS02001622 CONDUIT    857.44     0  01:53      1.36    1.26    1.00
  YS02001622YS02001625 CONDUIT    856.89     0  01:53      1.09    0.46    1.00
  YS02001625YS02001629 CONDUIT    857.15     0  01:53      1.10    0.41    1.00
  YS02001629YS02163301 CONDUIT    868.16     0  01:54      1.11    1.07    1.00
  YS02001633YS02163601 CONDUIT   1158.41     0  01:54      1.47    1.22    1.00
  YS02001641YS02001644 CONDUIT   1160.18     0  01:54      1.48    3.75    1.00
  YS02001644YS02001647 CONDUIT   1419.70     0  01:54      1.98    0.83    0.86
  YS02001647YS02001649 CONDUIT   1433.16     0  01:54      2.29    0.76    0.76
  YS02001649YS02001757 CONDUIT   1658.87     0  01:55      2.45    1.01    0.80
  YS02001652YS02001649 CONDUIT    279.85     0  01:55      0.99    0.14    0.71
  YS02001655YS02001652 CONDUIT    268.40     0  01:50      1.69    0.13    0.46
  YS02001658YS02001655 CONDUIT    262.92     0  01:50      1.86    0.11    0.28
  YS02001661YS02001658 CONDUIT    262.51     0  01:50      2.03    0.10    0.22
  YS02001664YS02001661 CONDUIT    262.03     0  01:50      1.81    0.08    0.24
  YS02001745YS02001748 CONDUIT    184.66     0  01:50      1.92    0.07    0.18
  YS02001748YS02001751 CONDUIT    185.38     0  01:50      1.61    0.09    0.20
  YS02001751YS02001754 CONDUIT    183.84     0  01:50      1.62    0.09    0.30
  YS02001754YS02001757 CONDUIT    181.59     0  01:52      0.69    0.07    0.63
  YS02001757CaochengTiaoxuchi CONDUIT   2214.18     0  01:56      3.27    0.96    0.89
  YS02001759YS02001757 CONDUIT    482.87     0  01:58      1.15    0.34    0.75
  YS02001762YS02001759 CONDUIT    313.15     0  01:58      0.60    0.36    0.69
  YS02001765YS02001762 CONDUIT    302.65     0  01:58      0.77    0.28    0.65
  YS02001767YS02001765 CONDUIT    302.21     0  01:58      0.91    0.38    0.61
  YS02001770YS02001767 CONDUIT    309.92     0  01:51      0.89    1.23    0.61
  YS02001774YS02001770 CONDUIT     32.71     0  01:48      0.18    0.02    0.63
  YS02001779YS02001774 CONDUIT     16.66     0  01:53      0.08    0.01    0.55
  YS02001783YS02001784 CONDUIT    875.75     0  01:57      1.75    1.21    0.99
  YS02001784YS02001785 CONDUIT    876.86     0  01:57      1.87    2.04    1.00
  YS02001786YS02001788 CONDUIT    877.16     0  01:57      2.30    1.69    0.99
  YS02001788YS02001790 CONDUIT    876.58     0  01:58      2.41    0.65    1.00
  YS02001790YS02001791 CONDUIT   1105.59     0  02:11      3.02    1.20    1.00
  YS02001791YS02001793 CONDUIT   1250.49     0  02:11      6.06    0.54    1.00
  YS02001793JiankangQianchi CONDUIT   1678.90     0  02:11     19.89    0.13    1.00
  YS02001882YS02001884 CONDUIT     24.09     0  01:48      0.11    0.03    0.87
  YS02001884YS02001887 CONDUIT     61.15     0  01:48      0.12    0.08    0.96
  YS02001887YS02001890 CONDUIT    252.66     0  01:51      0.35    0.43    1.00
  YS02001890YS02001895 CONDUIT    247.26     0  01:51      0.38    0.12    0.90
  YS02001895YS02001898 CONDUIT    230.84     0  01:51      0.47    0.40    0.80
  YS02001898YS02001901 CONDUIT    216.59     0  01:55      0.34    0.14    0.89
  YS02001901YS02001904 CONDUIT    212.03     0  01:56      0.35    0.33    0.94
  YS02001904YS02001907 CONDUIT    218.11     0  02:05      0.30    0.08    0.97
  YS02001907YS02006553 CONDUIT    609.07     0  01:59      0.68    0.72    1.00
  YS02001910YS02001907 CONDUIT    419.37     0  01:58      0.53    0.24    1.00
  YS02001915YS02001910 CONDUIT    419.54     0  01:58      0.55    0.21    0.93
  YS02001918YS02001915 CONDUIT    175.07     0  01:58      0.44    0.10    0.69
  YS02001920YS02001918 CONDUIT    154.86     0  01:58      0.68    0.15    0.54
  YS02001923YS02001920 CONDUIT    143.91     0  01:56      0.79    0.06    0.45
  YS02001926YS02001923 CONDUIT    134.97     0  01:55      0.86    0.19    0.25
  YS02001929YS02001926 CONDUIT    135.68     0  01:55      0.95    0.06    0.24
  YS02006553YS02006556 CONDUIT    609.27     0  01:59      0.78    0.52    1.00
  YS02006556YS02006558 CONDUIT    609.55     0  01:59      0.78    0.48    1.00
  YS02006558YS02006561 CONDUIT    876.82     0  01:57      3.45    1.94    0.84
  YS02006561YS02001783 CONDUIT    876.14     0  01:57      2.15    0.45    0.76
  YS02163301YS02001633 CONDUIT    868.65     0  01:54      1.11    0.82    1.00
  YS02163601YS02164001 CONDUIT   1158.63     0  01:54      1.48    1.03    1.00
  YS02164001YS02001641 CONDUIT   1159.75     0  01:54      1.48    1.58    1.00
  YSB1154YSB6556       CONDUIT    141.58     0  01:50      0.37    0.25    1.00
  YSB1171HS02004479    CONDUIT    280.18     0  01:50      0.56    0.19    1.00
  YSB1174YSB1171       CONDUIT    137.03     0  01:50      0.36    0.21    1.00
  YSB6556YSB1171       CONDUIT    143.77     0  01:50      0.37    0.15    1.00
  CC-R1                PUMP       683.00     0  02:10              1.00
  CC-R2                PUMP         0.00     0  00:00              0.00
  CC-S1                PUMP       200.00     0  00:40              1.00
  CC-S2                PUMP       200.00     0  02:00              1.00
  JK-R1                PUMP      1000.00     0  01:50              1.00
  JK-R2                PUMP      1000.00     0  02:10              1.00
  JK-S                 PUMP       300.00     0  01:50              1.00
  XR-1                 PUMP        95.00     0  00:10              1.00
  XR-2                 PUMP        95.00     0  00:29              1.00
  XR-3                 PUMP         0.00     0  00:00              0.00
  XR-4                 PUMP         0.00     0  00:00              0.00
  
  
  ***************************
  Flow Classification Summary
  ***************************
  
  -------------------------------------------------------------------------------------
                      Adjusted    ---------- Fraction of Time in Flow Class ---------- 
                       /Actual         Up    Down  Sub   Sup   Up    Down  Norm  Inlet 
  Conduit               Length    Dry  Dry   Dry   Crit  Crit  Crit  Crit  Ltd   Ctrl  
  -------------------------------------------------------------------------------------
  1                       1.00   0.00  0.00  0.00  0.00  1.00  0.00  0.00  0.43  0.00
  HS02004478WS02006287    1.00   0.34  0.00  0.00  0.39  0.27  0.00  0.00  0.54  0.00
  HS02004479HS02004480    1.00   0.01  0.00  0.00  0.99  0.00  0.00  0.00  0.18  0.00
  HS02004480HS02004478    1.00   0.20  0.00  0.00  0.28  0.00  0.00  0.52  0.00  0.00
  HS02004770HS02004777    1.00   0.00  0.17  0.00  0.83  0.00  0.00  0.00  0.06  0.00
  HS02004777HS02004785    1.00   0.00  0.00  0.00  1.00  0.00  0.00  0.00  0.20  0.00
  HS02004785HS02004788    1.00   0.00  0.00  0.00  1.00  0.00  0.00  0.00  0.00  0.00
  HS02004788HS02004792    1.00   0.00  0.00  0.00  1.00  0.00  0.00  0.00  0.94  0.00
  HS02004792HS02004799    1.00   0.00  0.00  0.00  1.00  0.00  0.00  0.00  0.91  0.00
  HS02004799HS02004480    1.00   0.00  0.01  0.00  0.66  0.00  0.33  0.00  0.00  0.00
  HS02004802HS02004478    1.00   0.20  0.04  0.00  0.76  0.00  0.00  0.00  0.03  0.00
  HS02004807HS02004802    1.00   0.18  0.00  0.00  0.76  0.00  0.00  0.06  0.01  0.00
  HS02004817HS02004807    1.00   0.00  0.18  0.00  0.82  0.00  0.00  0.00  0.01  0.00
  HS02004817HS02004824    1.00   0.00  0.00  0.00  1.00  0.00  0.00  0.00  0.88  0.00
  HS02004824HS02004830    1.00   0.00  0.00  0.00  1.00  0.00  0.00  0.00  0.01  0.00
  HS02004830HS02004837    1.00   0.00  0.00  0.00  1.00  0.00  0.00  0.00  0.92  0.00
  HS02004837HS02004842    1.00   0.00  0.00  0.00  1.00  0.00  0.00  0.00  0.14  0.00
  HS02004842HS02004848    1.00   0.00  0.18  0.00  0.82  0.00  0.00  0.00  0.51  0.00
  HS02004848HS02004852    1.00   0.18  0.00  0.00  0.82  0.00  0.00  0.00  0.65  0.00
  HS02004852HS02004856    1.00   0.17  0.07  0.00  0.76  0.00  0.00  0.00  0.67  0.00
  HS02004856HS02004862    1.00   0.00  0.41  0.00  0.59  0.00  0.00  0.00  0.69  0.00
  HS02004862HS02004870    1.00   0.00  0.00  0.00  1.00  0.00  0.00  0.00  0.06  0.00
  HS02004870HS02004876    1.00   0.00  0.00  0.00  1.00  0.00  0.00  0.00  0.89  0.00
  HS02004876HS02004881    1.00   0.00  0.00  0.00  0.81  0.19  0.00  0.00  0.00  0.00
  HS02004881HS02006253    1.00   0.02  0.00  0.00  0.75  0.00  0.00  0.24  0.42  0.00
  HS02004901HS02004770    1.00   0.17  0.01  0.00  0.83  0.00  0.00  0.00  0.01  0.00
  WS02001211WS02001212    1.00   0.00  0.01  0.00  0.99  0.00  0.00  0.00  0.00  0.00
  WS02001212WS02001213    1.00   0.01  0.00  0.00  0.35  0.00  0.65  0.00  0.00  0.00
  WS02001213WS02003059    1.00   0.00  0.00  0.00  1.00  0.00  0.00  0.00  0.00  0.00
  WS02003059WS02003060    1.00   0.00  0.00  0.00  1.00  0.00  0.00  0.00  0.04  0.00
  WS02003060WS02003069    1.00   0.00  0.00  0.00  0.99  0.01  0.00  0.00  0.40  0.00
  WS02003066WSF200        1.00   0.12  0.00  0.00  0.00  0.88  0.00  0.00  0.55  0.00
  WS02003067WS02003066    1.00   0.03  0.08  0.00  0.90  0.00  0.00  0.00  0.00  0.00
  WS02003069WS02003072    1.00   0.00  0.00  0.00  1.00  0.00  0.00  0.00  0.51  0.00
  WS02003072WS02003073    1.00   0.00  0.00  0.00  0.00  0.00  0.00  1.00  0.00  0.00
  WS02004138WS02004139    1.00   0.01  0.00  0.00  0.99  0.00  0.00  0.00  0.97  0.00
  WS02004139WS02001211    1.00   0.00  0.00  0.00  1.00  0.00  0.00  0.00  0.01  0.00
  WS02004401WS02004402    1.00   0.00  0.00  0.00  1.00  0.00  0.00  0.00  0.00  0.00
  WS02004402WS02004403    1.00   0.00  0.00  0.00  1.00  0.00  0.00  0.00  0.00  0.00
  WS02004403WS02004404    1.00   0.00  0.00  0.00  1.00  0.00  0.00  0.00  0.00  0.00
  WS02004404WS02004405    1.00   0.00  0.00  0.00  1.00  0.00  0.00  0.00  0.00  0.00
  WS02004405WS02004406    1.00   0.00  0.00  0.00  1.00  0.00  0.00  0.00  0.00  0.00
  WS02004406WS02004407    1.00   0.00  0.00  0.00  1.00  0.00  0.00  0.00  0.01  0.00
  WS02004407WS02004409    1.00   0.00  0.00  0.00  1.00  0.00  0.00  0.00  0.91  0.00
  WS02004409WS02004410    1.00   0.00  0.00  0.00  1.00  0.00  0.00  0.00  0.05  0.00
  WS02004410WS02004411    1.00   0.00  0.00  0.00  1.00  0.00  0.00  0.00  0.03  0.00
  WS02004411WS02004412    1.00   0.00  0.00  0.00  1.00  0.00  0.00  0.00  0.01  0.00
  WS02004412WS02004413    1.00   0.00  0.00  0.00  1.00  0.00  0.00  0.00  0.02  0.00
  WS02004413WS02003067    1.00   0.01  0.02  0.00  0.00  0.00  0.97  0.00  0.00  0.00
  WS02006109WS02006110    1.00   0.00  0.00  0.00  1.00  0.00  0.00  0.00  0.00  0.00
  WS02006110WS02006113    1.00   0.00  0.00  0.00  1.00  0.00  0.00  0.00  0.00  0.00
  WS02006111WS02006112    1.00   0.00  0.00  0.00  1.00  0.00  0.00  0.00  0.80  0.00
  WS02006112WS02006115    1.00   0.00  0.00  0.00  1.00  0.00  0.00  0.00  0.00  0.00
  WS02006113WS02006111    1.00   0.00  0.00  0.00  0.17  0.83  0.00  0.00  0.12  0.00
  WS02006115WS02006116    1.00   0.00  0.00  0.00  1.00  0.00  0.00  0.00  0.00  0.00
  WS02006116WS02004401    1.00   0.00  0.00  0.00  1.00  0.00  0.00  0.00  0.00  0.00
  WS02006228WS02006109    1.00   0.00  0.00  0.00  1.00  0.00  0.00  0.00  0.00  0.00
  WS02006229WS02006228    1.00   0.00  0.00  0.00  1.00  0.00  0.00  0.00  0.00  0.00
  WS02006230WS02006229    1.00   0.00  0.00  0.00  1.00  0.00  0.00  0.00  0.02  0.00
  WS02006231WS02006230    1.00   0.00  0.00  0.00  0.36  0.00  0.64  0.00  0.00  0.00
  WS02006232WS02006231    1.00   0.00  0.00  0.00  0.98  0.00  0.01  0.00  0.01  0.00
  WS02006234WS02006232    1.00   0.00  0.00  0.00  1.00  0.00  0.00  0.00  0.16  0.00
  WS02006235WS02006234    1.00   0.07  0.00  0.00  0.86  0.00  0.07  0.00  0.00  0.00
  WS02006238WS02006235    1.00   0.06  0.01  0.00  0.93  0.01  0.00  0.00  0.00  0.00
  WS02006239WS02006238    1.00   0.05  0.00  0.00  0.93  0.00  0.00  0.01  0.15  0.00
  WS02006240WS02006239    1.00   0.05  0.00  0.00  0.80  0.00  0.00  0.15  0.01  0.00
  WS02006242WS02006240    1.00   0.02  0.03  0.00  0.93  0.00  0.02  0.00  0.00  0.00
  WS02006243WS02006242    1.00   0.01  0.00  0.00  0.94  0.00  0.00  0.05  0.37  0.00
  WS02006245WS02006243    1.00   0.01  0.00  0.00  0.91  0.00  0.00  0.08  0.00  0.00
  WS02006247WS02006245    1.00   0.01  0.00  0.00  0.95  0.00  0.00  0.04  0.00  0.00
  WS02006248WS02006247    1.00   0.01  0.00  0.00  0.96  0.00  0.00  0.03  0.39  0.00
  WS02006249WS02006248    1.00   0.00  0.01  0.00  0.77  0.00  0.22  0.00  0.00  0.00
  WS02006251WS02006249    1.00   0.00  0.00  0.00  1.00  0.00  0.00  0.00  0.50  0.00
  WS02006252WS02006251    1.00   0.03  0.00  0.00  0.28  0.00  0.69  0.00  0.00  0.00
  WS02006253WS02006251    1.00   0.01  0.01  0.00  0.96  0.00  0.01  0.00  0.00  0.00
  WS02006256WS02006235    1.00   0.06  0.00  0.00  0.93  0.01  0.00  0.00  0.00  0.00
  WS02006280WS02006229    1.00   0.21  0.00  0.00  0.11  0.05  0.00  0.64  0.02  0.00
  WS02006284WS02006280    1.00   0.21  0.00  0.00  0.07  0.01  0.00  0.72  0.00  0.00
  WS02006287WS02006284    1.00   0.09  0.25  0.00  0.28  0.38  0.00  0.00  0.67  0.00
  WSF200WS02003060        1.00   0.00  0.13  0.00  0.56  0.31  0.00  0.00  0.53  0.00
  YS02001580YS02001583    1.00   0.50  0.32  0.00  0.18  0.00  0.00  0.00  0.65  0.00
  YS02001583YS02001586    1.00   0.32  0.42  0.00  0.26  0.00  0.00  0.00  0.65  0.00
  YS02001586YS02001590    1.00   0.17  0.00  0.00  0.45  0.07  0.00  0.30  0.42  0.00
  YS02001590YS02001593    1.00   0.18  0.05  0.00  0.08  0.00  0.69  0.00  0.00  0.00
  YS02001593YS02001596    1.00   0.23  0.00  0.00  0.10  0.01  0.00  0.66  0.02  0.00
  YS02001596YS02001600    1.00   0.24  0.00  0.00  0.18  0.02  0.00  0.55  0.07  0.00
  YS02001600YS02001601    1.00   0.21  0.04  0.00  0.75  0.00  0.00  0.00  0.56  0.00
  YS02001601YS02001602    1.00   0.17  0.07  0.00  0.76  0.00  0.00  0.00  0.00  0.00
  YS02001602YS02001605    1.00   0.24  0.00  0.00  0.75  0.00  0.00  0.00  0.00  0.00
  YS02001605YS02001607    1.00   0.25  0.00  0.00  0.75  0.00  0.00  0.00  0.00  0.00
  YS02001607YS02001610    1.00   0.20  0.06  0.00  0.74  0.00  0.00  0.00  0.04  0.00
  YS02001610YS02001613    1.00   0.19  0.00  0.00  0.81  0.00  0.00  0.00  0.03  0.00
  YS02001613YS02001616    1.00   0.18  0.00  0.00  0.82  0.00  0.00  0.00  0.01  0.00
  YS02001616YS02001619    1.00   0.17  0.00  0.00  0.83  0.00  0.00  0.00  0.00  0.00
  YS02001619YS02001622    1.00   0.17  0.00  0.00  0.83  0.00  0.00  0.00  0.11  0.00
  YS02001622YS02001625    1.00   0.18  0.00  0.00  0.82  0.00  0.00  0.00  0.10  0.00
  YS02001625YS02001629    1.00   0.19  0.25  0.00  0.12  0.00  0.44  0.00  0.00  0.00
  YS02001629YS02163301    1.00   0.35  0.04  0.00  0.61  0.00  0.00  0.00  0.00  0.00
  YS02001633YS02163601    1.00   0.00  0.00  0.00  1.00  0.00  0.00  0.00  0.23  0.00
  YS02001641YS02001644    1.00   0.00  0.00  0.00  1.00  0.00  0.00  0.00  0.00  0.00
  YS02001644YS02001647    1.00   0.00  0.42  0.00  0.58  0.00  0.00  0.00  0.00  0.00
  YS02001647YS02001649    1.00   0.00  0.42  0.00  0.30  0.28  0.00  0.00  0.49  0.00
  YS02001649YS02001757    1.00   0.00  0.00  0.00  0.73  0.27  0.00  0.00  0.52  0.00
  YS02001652YS02001649    1.00   0.00  0.00  0.00  0.85  0.15  0.00  0.00  0.75  0.00
  YS02001655YS02001652    1.00   0.00  0.00  0.00  0.15  0.01  0.00  0.84  0.09  0.00
  YS02001658YS02001655    1.00   0.00  0.28  0.00  0.23  0.49  0.00  0.00  0.71  0.00
  YS02001661YS02001658    1.00   0.28  0.00  0.00  0.11  0.61  0.00  0.00  0.69  0.00
  YS02001664YS02001661    1.00   0.17  0.00  0.00  0.68  0.15  0.00  0.00  0.83  0.00
  YS02001745YS02001748    1.00   0.00  0.00  0.00  0.00  0.00  0.00  1.00  0.00  0.00
  YS02001748YS02001751    1.00   0.00  0.00  0.00  0.58  0.42  0.00  0.00  0.85  0.00
  YS02001751YS02001754    1.00   0.00  0.00  0.00  0.12  0.01  0.00  0.87  0.11  0.00
  YS02001754YS02001757    1.00   0.00  0.00  0.00  1.00  0.00  0.00  0.00  0.87  0.00
  YS02001757CaochengTiaoxuchi    1.00   0.00  0.00  0.00  0.97  0.03  0.00  0.00  0.73  0.00
  YS02001759YS02001757    1.00   0.00  0.00  0.00  1.00  0.00  0.00  0.00  0.65  0.00
  YS02001762YS02001759    1.00   0.00  0.00  0.00  1.00  0.00  0.00  0.00  0.07  0.00
  YS02001765YS02001762    1.00   0.00  0.00  0.00  1.00  0.00  0.00  0.00  0.77  0.00
  YS02001767YS02001765    1.00   0.00  0.00  0.00  1.00  0.00  0.00  0.00  0.00  0.00
  YS02001770YS02001767    1.00   0.00  0.00  0.00  1.00  0.00  0.00  0.00  0.00  0.00
  YS02001774YS02001770    1.00   0.00  0.24  0.00  0.76  0.00  0.00  0.00  0.06  0.00
  YS02001779YS02001774    1.00   0.00  0.00  0.00  1.00  0.00  0.00  0.00  0.83  0.00
  YS02001783YS02001784    1.00   0.00  0.44  0.00  0.56  0.00  0.00  0.00  0.45  0.00
  YS02001784YS02001785    1.00   0.00  0.00  0.00  1.00  0.00  0.00  0.00  0.26  0.00
  YS02001786YS02001788    1.00   0.00  0.00  0.00  0.69  0.31  0.00  0.00  0.00  0.00
  YS02001788YS02001790    1.00   0.00  0.00  0.00  0.47  0.53  0.00  0.00  0.87  0.00
  YS02001790YS02001791    1.00   0.00  0.00  0.00  0.02  0.98  0.00  0.00  0.18  0.00
  YS02001791YS02001793    1.00   0.00  0.00  0.00  0.03  0.97  0.00  0.00  0.02  0.00
  YS02001793JiankangQianchi    1.00   0.00  0.00  0.00  0.91  0.09  0.00  0.00  0.89  0.00
  YS02001882YS02001884    1.00   0.33  0.05  0.00  0.62  0.00  0.00  0.00  0.00  0.00
  YS02001884YS02001887    1.00   0.02  0.11  0.00  0.87  0.00  0.00  0.00  0.00  0.00
  YS02001887YS02001890    1.00   0.00  0.00  0.00  0.99  0.00  0.01  0.00  0.00  0.00
  YS02001890YS02001895    1.00   0.00  0.40  0.00  0.60  0.00  0.00  0.00  0.00  0.00
  YS02001895YS02001898    1.00   0.40  0.01  0.00  0.55  0.00  0.05  0.00  0.00  0.00
  YS02001898YS02001901    1.00   0.39  0.02  0.00  0.59  0.00  0.00  0.00  0.01  0.00
  YS02001901YS02001904    1.00   0.39  0.00  0.00  0.61  0.00  0.00  0.00  0.00  0.00
  YS02001904YS02001907    1.00   0.00  0.39  0.00  0.61  0.00  0.00  0.00  0.00  0.00
  YS02001907YS02006553    1.00   0.00  0.01  0.00  0.99  0.00  0.00  0.00  0.00  0.00
  YS02001910YS02001907    1.00   0.00  0.00  0.00  0.99  0.00  0.00  0.01  0.17  0.00
  YS02001915YS02001910    1.00   0.00  0.00  0.00  0.94  0.06  0.00  0.00  0.25  0.00
  YS02001918YS02001915    1.00   0.00  0.00  0.00  1.00  0.00  0.00  0.00  0.74  0.00
  YS02001920YS02001918    1.00   0.00  0.00  0.00  1.00  0.00  0.00  0.00  0.01  0.00
  YS02001923YS02001920    1.00   0.00  0.00  0.00  1.00  0.00  0.00  0.00  0.97  0.00
  YS02001926YS02001923    1.00   0.00  0.03  0.00  0.00  0.00  0.97  0.00  0.00  0.00
  YS02001929YS02001926    1.00   0.00  0.17  0.00  0.83  0.00  0.00  0.00  0.83  0.00
  YS02006553YS02006556    1.00   0.00  0.00  0.00  1.00  0.00  0.00  0.00  0.04  0.00
  YS02006556YS02006558    1.00   0.00  0.00  0.00  1.00  0.00  0.00  0.00  0.00  0.00
  YS02006558YS02006561    1.00   0.44  0.00  0.00  0.00  0.56  0.00  0.00  0.25  0.00
  YS02006561YS02001783    1.00   0.44  0.00  0.00  0.07  0.50  0.00  0.00  0.64  0.00
  YS02163301YS02001633    1.00   0.00  0.35  0.00  0.65  0.00  0.00  0.00  0.00  0.00
  YS02163601YS02164001    1.00   0.00  0.03  0.00  0.97  0.00  0.00  0.00  0.00  0.00
  YS02164001YS02001641    1.00   0.00  0.03  0.00  0.97  0.00  0.00  0.00  0.08  0.00
  YSB1154YSB6556          1.00   0.16  0.00  0.00  0.84  0.00  0.00  0.00  0.03  0.00
  YSB1171HS02004479       1.00   0.01  0.00  0.00  0.98  0.00  0.00  0.00  0.16  0.00
  YSB1174YSB1171          1.00   0.02  0.04  0.00  0.94  0.00  0.00  0.00  0.00  0.00
  YSB6556YSB1171          1.00   0.01  0.15  0.00  0.84  0.00  0.00  0.00  0.00  0.00
  
  
  *************************
  Conduit Surcharge Summary
  *************************
  
  ----------------------------------------------------------------------------
                                                           Hours        Hours 
                         --------- Hours Full --------   Above Full   Capacity
  Conduit                Both Ends  Upstream  Dnstream   Normal Flow   Limited
  ----------------------------------------------------------------------------
  HS02004478WS02006287        0.01      0.01      0.20      0.01         0.01
  HS02004479HS02004480        0.21      0.21      0.22      0.01         0.01
  HS02004480HS02004478        0.12      0.20      0.12      0.96         0.12
  HS02004770HS02004777        0.08      0.08      0.09      0.06         0.02
  HS02004777HS02004785        0.01      0.01      0.09      0.01         0.01
  HS02004785HS02004788        0.01      0.01      0.01      0.71         0.01
  HS02004788HS02004792        0.01      0.01      0.17      0.01         0.01
  HS02004792HS02004799        0.17      0.17      0.27      0.01         0.01
  HS02004799HS02004480        0.20      0.20      0.27      0.33         0.01
  HS02004802HS02004478        0.15      0.15      0.21      0.01         0.01
  HS02004807HS02004802        0.19      0.19      0.21      0.01         0.01
  HS02004817HS02004807        0.19      0.19      0.58      0.01         0.01
  HS02004817HS02004824        0.01      0.01      0.58      0.01         0.01
  HS02004837HS02004842        0.01      0.01      0.10      0.01         0.01
  HS02004842HS02004848        0.01      0.01      0.10      0.01         0.01
  HS02004876HS02004881        0.01      0.01      0.01      0.73         0.01
  HS02004881HS02006253        0.01      0.01      1.55      0.01         0.01
  HS02004901HS02004770        0.08      0.08      0.09      0.01         0.01
  WS02003072WS02003073        0.01      0.01      0.01      1.94         0.01
  WS02004401WS02004402        1.07      1.07      1.08      0.71         0.70
  WS02004402WS02004403        1.08      1.08      1.09      1.07         1.06
  WS02004403WS02004404        1.09      1.09      1.30      0.01         0.01
  WS02004404WS02004405        1.23      1.30      1.23      3.19         1.23
  WS02004405WS02004406        1.18      1.23      1.18      1.62         1.18
  WS02004406WS02004407        0.01      0.01      1.18      0.01         0.01
  WS02004407WS02004409        0.01      0.01      0.43      0.01         0.01
  WS02004409WS02004410        0.40      0.43      0.40      0.81         0.40
  WS02004410WS02004411        0.34      0.40      0.34      1.02         0.34
  WS02004411WS02004412        0.28      0.34      0.28      1.07         0.28
  WS02004412WS02004413        0.28      0.28      0.64      0.01         0.01
  WS02004413WS02003067        0.01      0.01      0.64      0.01         0.01
  WS02006109WS02006110        1.58      1.59      1.74      1.59         0.01
  WS02006110WS02006113        0.56      0.56      1.74      0.01         0.01
  WS02006111WS02006112        0.55      0.56      1.86      0.01         0.01
  WS02006112WS02006115        0.85      0.85      1.64      0.01         0.01
  WS02006113WS02006111        0.56      0.56      0.56      0.70         0.56
  WS02006115WS02006116        0.89      0.89      0.91      0.81         0.79
  WS02006116WS02004401        1.07      1.07      1.07      1.04         1.01
  WS02006228WS02006109        1.72      1.74      1.72      2.06         1.72
  WS02006229WS02006228        1.71      1.72      1.71      1.82         1.71
  WS02006230WS02006229        1.76      1.77      1.76      3.22         1.30
  WS02006231WS02006230        1.37      1.37      1.60      3.01         0.43
  WS02006232WS02006231        1.58      1.58      1.65      0.01         0.02
  WS02006234WS02006232        1.61      1.61      1.65      0.01         0.01
  WS02006235WS02006234        1.60      1.60      1.61      2.86         0.40
  WS02006238WS02006235        1.62      1.62      1.63      0.01         0.10
  WS02006239WS02006238        1.62      1.62      1.62      0.99         0.71
  WS02006240WS02006239        1.60      1.61      1.61      0.96         0.68
  WS02006242WS02006240        1.60      1.60      1.61      1.30         0.34
  WS02006243WS02006242        1.59      1.59      1.61      0.01         0.01
  WS02006245WS02006243        1.58      1.58      1.59      0.58         0.59
  WS02006247WS02006245        1.58      1.58      1.58      2.54         1.01
  WS02006248WS02006247        1.57      1.57      1.58      0.01         0.01
  WS02006249WS02006248        1.57      1.57      1.57      2.05         0.01
  WS02006251WS02006249        1.57      1.57      1.57      1.57         1.55
  WS02006252WS02006251        1.55      1.55      1.55      1.33         0.01
  WS02006253WS02006251        1.56      1.57      1.56      0.32         0.01
  WS02006256WS02006235        3.03      3.04      4.59      0.56         0.01
  WS02006280WS02006229        0.30      0.30      0.36      0.01         0.01
  WS02006284WS02006280        0.22      0.22      0.29      0.01         0.01
  WS02006287WS02006284        0.11      0.11      0.23      0.01         0.01
  YS02001580YS02001583        0.01      0.01      0.01      0.01         0.01
  YS02001583YS02001586        0.01      0.01      0.19      0.01         0.01
  YS02001586YS02001590        0.20      0.20      0.28      0.01         0.01
  YS02001590YS02001593        0.28      0.28      0.29      0.27         0.01
  YS02001593YS02001596        0.29      0.29      0.37      0.01         0.01
  YS02001596YS02001600        0.40      0.40      0.48      0.01         0.01
  YS02001600YS02001601        0.52      0.52      0.74      0.01         0.01
  YS02001601YS02001602        0.65      0.65      0.78      0.50         0.01
  YS02001602YS02001605        0.61      0.61      0.65      1.54         0.01
  YS02001605YS02001607        0.58      0.61      0.58      0.71         0.58
  YS02001607YS02001610        0.20      0.20      0.23      0.01         0.01
  YS02001610YS02001613        0.19      0.19      0.23      0.01         0.01
  YS02001613YS02001616        0.14      0.14      0.19      0.01         0.01
  YS02001616YS02001619        0.13      0.13      0.14      0.01         0.01
  YS02001619YS02001622        0.12      0.13      0.12      0.29         0.11
  YS02001622YS02001625        0.12      0.12      0.32      0.01         0.01
  YS02001625YS02001629        0.01      0.01      0.32      0.01         0.01
  YS02001629YS02163301        0.30      0.30      0.31      0.16         0.15
  YS02001633YS02163601        0.33      0.33      0.35      0.21         0.21
  YS02001641YS02001644        0.16      0.23      0.16      0.82         0.16
  YS02001644YS02001647        0.01      0.01      0.16      0.01         0.01
  YS02001649YS02001757        0.01      0.01      0.01      0.01         0.01
  YS02001757CaochengTiaoxuchi        0.01      0.01      0.84      0.01         0.01
  YS02001770YS02001767        0.01      0.01      0.01      0.21         0.01
  YS02001783YS02001784        0.01      0.02      0.01      0.26         0.01
  YS02001784YS02001785        0.01      0.01      0.01      0.43         0.01
  YS02001786YS02001788        0.01      0.01      0.01      0.34         0.01
  YS02001788YS02001790        0.01      0.01      0.05      0.01         0.01
  YS02001790YS02001791        0.04      0.05      0.05      0.01         0.01
  YS02001791YS02001793        0.05      0.05      0.08      0.01         0.01
  YS02001793JiankangQianchi        0.07      0.07      4.28      0.01         0.01
  YS02001887YS02001890        0.02      0.02      0.08      0.01         0.01
  YS02001890YS02001895        0.01      0.01      0.12      0.01         0.01
  YS02001904YS02001907        0.01      0.01      0.32      0.01         0.01
  YS02001907YS02006553        0.44      0.44      0.48      0.01         0.01
  YS02001910YS02001907        0.12      0.12      0.31      0.01         0.01
  YS02001915YS02001910        0.01      0.01      0.12      0.01         0.01
  YS02006553YS02006556        0.23      0.23      0.32      0.01         0.01
  YS02006556YS02006558        0.28      0.28      0.33      0.01         0.01
  YS02006558YS02006561        0.01      0.22      0.01      0.40         0.01
  YS02006561YS02001783        0.01      0.01      0.02      0.01         0.01
  YS02163301YS02001633        0.31      0.31      0.35      0.01         0.01
  YS02163601YS02164001        0.25      0.25      0.35      0.03         0.01
  YS02164001YS02001641        0.23      0.25      0.23      0.39         0.23
  YSB1154YSB6556              0.25      0.25      0.35      0.01         0.01
  YSB1171HS02004479           0.16      0.16      0.35      0.01         0.01
  YSB1174YSB1171              0.30      0.30      0.51      0.01         0.01
  YSB6556YSB1171              0.25      0.25      0.62      0.01         0.01
  
  
  ***************
  Pumping Summary
  ***************
  
  ---------------------------------------------------------------------------------------------------------
                                                  Min       Avg       Max     Total     Power    % Time Off
                        Percent   Number of      Flow      Flow      Flow    Volume     Usage    Pump Curve
  Pump                 Utilized   Start-Ups       LPS       LPS       LPS  10^6 ltr     Kw-hr    Low   High
  ---------------------------------------------------------------------------------------------------------
  CC-R1                   19.47           1      0.00    683.00    683.00     2.872     50.94    0.0   42.7
  CC-R2                    0.00           0      0.00      0.00      0.00     0.000      0.00    0.0    0.0
  CC-S1                   44.49           1      0.00    200.00    200.00     1.922     12.96    0.0    0.0
  CC-S2                   22.25           1      0.00    200.00    200.00     0.961      6.42    0.0    0.0
  JK-R1                    8.35           3      0.00    660.71   1000.00     1.162      7.81    0.0    0.0
  JK-R2                    5.57           2      0.00    487.33   1000.00     0.577      4.03    0.0    0.0
  JK-S                    13.91           4      0.00    247.30    300.00     0.719     13.54    0.0    0.0
  XR-1                    97.21           1      0.00     95.00     95.00     1.995      8.80    0.0    0.0
  XR-2                    91.94           1      0.00     95.00     95.00     1.887      7.97    0.0    0.0
  XR-3                     0.00           0      0.00      0.00      0.00     0.000      0.00    0.0    0.0
  XR-4                     0.00           0      0.00      0.00      0.00     0.000      0.00    0.0    0.0
  

  Analysis begun on:  Wed Aug 24 17:02:51 2022
  Analysis ended on:  Wed Aug 24 17:02:54 2022
  Total elapsed time: 00:00:03