
  OWA STORM WATER MANAGEMENT MODEL - VERSION v5.1.14 (OWA 2022-07-31)
  --------------------------------------------------------------

  WARNING 04: minimum elevation drop used for Conduit WS02004404WS02004405
  WARNING 03: negative offset ignored for Link YS02001904YS02001907
  
  *********************************************************
  NOTE: The summary statistics displayed in this report are
  based on results found at every computational time step,  
  not just on results from each reporting time step.
  *********************************************************
  
  ****************
  Analysis Options
  ****************
  Flow Units ............... LPS
  Process Models:
    Rainfall/Runoff ........ YES
    RDII ................... NO
    Snowmelt ............... NO
    Groundwater ............ NO
    Flow Routing ........... YES
    Ponding Allowed ........ NO
    Water Quality .......... NO
  Infiltration Method ...... HORTON
  Flow Routing Method ...... DYNWAVE
  Surcharge Method ......... EXTRAN
  Starting Date ............ 01/01/2000 00:00:00
  Ending Date .............. 01/01/2000 06:00:00
  Antecedent Dry Days ...... 8.0
  Report Time Step ......... 00:01:00
  Wet Time Step ............ 00:01:00
  Dry Time Step ............ 00:01:00
  Routing Time Step ........ 30.00 sec
  Variable Time Step ....... YES
  Maximum Trials ........... 8
  Number of Threads ........ 4
  Head Tolerance ........... 0.001500 m
  
  
  **************************        Volume         Depth
  Runoff Quantity Continuity     hectare-m            mm
  **************************     ---------       -------
  Total Precipitation ......         3.863        63.776
  Evaporation Loss .........         0.000         0.000
  Infiltration Loss ........         0.242         4.002
  Surface Runoff ...........         3.556        58.708
  Final Storage ............         0.065         1.077
  Continuity Error (%) .....        -0.017
  
  
  **************************        Volume        Volume
  Flow Routing Continuity        hectare-m      10^6 ltr
  **************************     ---------     ---------
  Dry Weather Inflow .......         0.472         4.722
  Wet Weather Inflow .......         3.556        35.556
  Groundwater Inflow .......         0.000         0.000
  RDII Inflow ..............         0.000         0.000
  External Inflow ..........         0.078         0.784
  External Outflow .........         2.296        22.958
  Flooding Loss ............         1.702        17.016
  Evaporation Loss .........         0.000         0.000
  Exfiltration Loss ........         0.000         0.000
  Initial Stored Volume ....         0.303         3.031
  Final Stored Volume ......         0.570         5.699
  Continuity Error (%) .....        -3.584
  
  
  *************************
  Highest Continuity Errors
  *************************
  Node JK-storage (-34.76%)
  Node YS02001884 (5.40%)
  Node YS02001583 (-3.83%)
  Node YS02001774 (1.88%)
  Node HS02004842 (1.56%)
  
  
  ***************************
  Time-Step Critical Elements
  ***************************
  Link WS02006235WS02006234 (19.02%)
  Link WS02006280WS02006229 (17.80%)
  Link YS02001793JiankangQianchi (17.50%)
  Link WS02004404WS02004405 (12.00%)
  Link WS02003066WSF200 (9.72%)
  
  
  ********************************
  Highest Flow Instability Indexes
  ********************************
  Link WS02006113WS02006111 (46)
  Link WS02006111WS02006112 (45)
  Link WS02006110WS02006113 (38)
  Link WS02006238WS02006235 (26)
  Link WS02004404WS02004405 (24)
  
  
  *************************
  Routing Time Step Summary
  *************************
  Minimum Time Step           :     0.50 sec
  Average Time Step           :     2.03 sec
  Maximum Time Step           :     8.46 sec
  Percent in Steady State     :     0.00
  Average Iterations per Step :     3.44
  Percent Not Converging      :    11.06
  
  
  ***************************
  Subcatchment Runoff Summary
  ***************************
  
  ------------------------------------------------------------------------------------------------------------------------------
                            Total      Total      Total      Total     Imperv       Perv      Total       Total     Peak  Runoff
                           Precip      Runon       Evap      Infil     Runoff     Runoff     Runoff      Runoff   Runoff   Coeff
  Subcatchment                 mm         mm         mm         mm         mm         mm         mm    10^6 ltr      LPS
  ------------------------------------------------------------------------------------------------------------------------------
  sub0                      63.78       0.00       0.00       1.01      58.05       3.45      61.50        0.05    30.10   0.964
  sub1                      63.78       0.00       0.00       1.72      55.45       5.29      60.75        0.40   214.05   0.953
  sub10                     63.78       0.00       0.00       1.22      57.34       3.89      61.22        0.68   363.79   0.960
  sub11                     63.78       0.00       0.00       1.20      57.37       3.91      61.28        0.71   400.22   0.961
  sub12                     63.78       0.00       0.00       1.95      54.29       6.35      60.64        0.53   315.53   0.951
  sub14                     63.78       0.00       0.00       1.37      56.73       4.38      61.11        0.58   320.84   0.958
  sub15                     63.78       0.00       0.00       5.33      43.64      13.80      57.44        0.99   501.57   0.901
  sub16                     63.78       0.00       0.00       5.52      41.80      15.53      57.33        0.60   333.80   0.899
  sub17                     63.78       0.00       0.00       5.38      42.42      15.03      57.45        0.49   271.56   0.901
  sub2                      63.78       0.00       0.00       7.60      39.21      16.00      55.22        0.51   220.74   0.866
  sub22                     63.78       0.00       0.00       8.08      35.55      19.35      54.90        3.47  1676.96   0.861
  sub23                     63.78       0.00       0.00       6.59      39.29      17.01      56.30        2.69  1384.25   0.883
  sub3                      63.78       0.00       0.00       8.10      39.14      15.35      54.49        1.23   479.67   0.854
  sub4                      63.78       0.00       0.00       1.92      55.14       5.10      60.24        1.26   530.16   0.945
  sub5                      63.78       0.00       0.00       1.06      57.95       3.41      61.35        0.70   368.53   0.962
  sub60                     63.78       0.00       0.00       1.83      54.89       5.82      60.71        0.80   453.43   0.952
  sub61                     63.78       0.00       0.00       2.66      51.77       8.19      59.96        1.10   629.43   0.940
  sub62                     63.78       0.00       0.00       1.22      57.33       3.88      61.21        1.68   893.11   0.960
  sub63                     63.78       0.00       0.00       4.90      44.29      13.60      57.89        1.31   713.80   0.908
  sub64                     63.78       0.00       0.00       2.48      52.93       7.09      60.02        1.44   731.17   0.941
  sub65                     63.78       0.00       0.00       2.14      54.14       6.15      60.29        1.66   817.30   0.945
  sub66                     63.78       0.00       0.00       6.04      44.08      12.45      56.54        2.64  1076.44   0.887
  sub67                     63.78       0.00       0.00       1.18      57.41       3.93      61.34        1.14   671.44   0.962
  sub68                     63.78       0.00       0.00       2.20      53.62       6.73      60.35        1.66   913.79   0.946
  sub69                     63.78       0.00       0.00       1.97      54.01       7.60      61.61        2.28  1087.38   0.966
  sub7                      63.78       0.00       0.00       1.35      56.76       4.40      61.16        0.21   117.93   0.959
  sub70                     63.78       0.00       0.00       6.52      41.79      15.17      56.96        1.65   617.49   0.893
  sub71                     63.78       0.00       0.00       1.25      57.25       3.85      61.10        1.60   791.03   0.958
  sub72                     63.78       0.00       0.00       1.11      57.76       3.35      61.11        0.84   382.38   0.958
  sub8                      63.78       0.00       0.00       1.36      56.74       4.38      61.12        0.39   217.76   0.958
  sub9                      63.78       0.00       0.00       1.36      56.74       4.38      61.12        0.29   162.93   0.958
  
  
  ******************
  Node Depth Summary
  ******************
  
  ---------------------------------------------------------------------------------
                                 Average  Maximum  Maximum  Time of Max    Reported
                                   Depth    Depth      HGL   Occurrence   Max Depth
  Node                 Type       Meters   Meters   Meters  days hr:min      Meters
  ---------------------------------------------------------------------------------
  HS02004478           JUNCTION     0.31     1.58    10.81     0  02:04        1.58
  HS02004479           JUNCTION     0.40     1.70    10.90     0  01:59        1.67
  HS02004480           JUNCTION     0.36     1.67    10.91     0  01:59        1.63
  HS02004770           JUNCTION     0.35     1.42    11.25     0  01:56        1.42
  HS02004777           JUNCTION     0.38     1.48    11.28     0  01:56        1.45
  HS02004785           JUNCTION     0.26     1.49    11.39     0  01:56        1.33
  HS02004788           JUNCTION     0.23     1.42    11.32     0  01:56        1.33
  HS02004792           JUNCTION     0.30     1.60    11.12     0  01:56        1.60
  HS02004799           JUNCTION     0.43     1.76    10.97     0  01:59        1.76
  HS02004802           JUNCTION     0.42     1.79    10.92     0  02:04        1.79
  HS02004807           JUNCTION     0.39     1.92    11.09     0  02:04        1.92
  HS02004817           JUNCTION     0.70     2.42    11.26     0  01:59        2.32
  HS02004824           JUNCTION     0.25     2.01    11.41     0  01:59        1.85
  HS02004830           JUNCTION     0.24     2.03    11.50     0  01:57        1.80
  HS02004837           JUNCTION     0.20     1.97    11.55     0  01:59        1.69
  HS02004842           JUNCTION     0.50     2.22    11.49     0  01:59        2.01
  HS02004848           JUNCTION     0.18     2.07    11.67     0  01:59        1.68
  HS02004852           JUNCTION     0.19     2.12    11.63     0  01:59        1.73
  HS02004856           JUNCTION     0.25     2.07    11.50     0  01:59        1.78
  HS02004862           JUNCTION     0.21     2.00    11.38     0  01:59        1.75
  HS02004870           JUNCTION     0.20     2.00    11.29     0  01:59        1.75
  HS02004876           JUNCTION     0.26     2.02    11.05     0  01:59        1.84
  HS02004881           JUNCTION     0.19     1.77    10.79     0  01:59        1.62
  HS02004901           JUNCTION     0.36     1.42    11.24     0  01:56        1.42
  WS02001211           JUNCTION     0.67     0.81     5.65     0  02:08        0.81
  WS02001212           JUNCTION     0.41     0.57     5.63     0  02:07        0.57
  WS02001213           JUNCTION     0.67     0.87     5.63     0  02:07        0.87
  WS02003059           JUNCTION     0.74     0.94     5.62     0  02:06        0.94
  WS02003060           JUNCTION     0.47     0.68     5.62     0  02:06        0.68
  WS02003066           JUNCTION     0.30     0.45     6.01     0  02:05        0.45
  WS02003067           JUNCTION     0.66     0.89     6.21     0  02:05        0.89
  WS02003069           JUNCTION     0.53     0.77     5.36     0  02:07        0.77
  WS02003072           JUNCTION     0.59     0.81     5.18     0  02:07        0.81
  WS02003073           JUNCTION     0.36     0.51     4.58     0  02:08        0.51
  WS02004138           JUNCTION     0.13     0.14     7.39     0  00:29        0.14
  WS02004139           JUNCTION     0.60     0.74     5.65     0  02:08        0.74
  WS02004401           JUNCTION     0.98     1.84     7.84     0  02:04        1.83
  WS02004402           JUNCTION     0.99     1.78     7.74     0  02:05        1.77
  WS02004403           JUNCTION     0.98     1.70     7.63     0  02:05        1.70
  WS02004404           JUNCTION     1.04     1.72     7.57     0  02:05        1.71
  WS02004405           JUNCTION     1.02     1.67     7.52     0  02:05        1.66
  WS02004406           JUNCTION     1.00     1.56     7.39     0  02:05        1.55
  WS02004407           JUNCTION     0.37     0.91     7.23     0  02:05        0.91
  WS02004409           JUNCTION     0.75     1.38     7.15     0  02:05        1.36
  WS02004410           JUNCTION     0.74     1.29     7.01     0  02:05        1.28
  WS02004411           JUNCTION     0.72     1.20     6.88     0  02:05        1.19
  WS02004412           JUNCTION     0.70     1.10     6.74     0  02:05        1.10
  WS02004413           JUNCTION     0.82     1.14     6.61     0  02:05        1.14
  WS02006109           JUNCTION     1.31     2.64     9.26     0  01:56        2.64
  WS02006110           JUNCTION     1.20     2.38     8.97     0  02:04        2.37
  WS02006111           JUNCTION     0.61     1.72     8.43     0  02:05        1.71
  WS02006112           JUNCTION     1.25     2.35     8.23     0  02:04        2.34
  WS02006113           JUNCTION     0.72     1.81     8.70     0  02:04        1.80
  WS02006115           JUNCTION     0.94     1.93     8.07     0  02:04        1.93
  WS02006116           JUNCTION     0.99     1.93     7.97     0  02:04        1.92
  WS02006228           JUNCTION     1.41     3.03     9.68     0  01:59        3.02
  WS02006229           JUNCTION     1.45     3.22     9.92     0  01:59        3.21
  WS02006230           JUNCTION     1.38     2.65     9.39     0  01:52        2.65
  WS02006231           JUNCTION     1.06     2.19     9.31     0  02:12        2.19
  WS02006232           JUNCTION     1.16     2.18     9.22     0  01:52        2.18
  WS02006234           JUNCTION     1.07     1.96     9.12     0  01:50        1.96
  WS02006235           JUNCTION     1.08     2.00     9.16     0  01:35        1.93
  WS02006238           JUNCTION     1.11     2.14     9.29     0  01:35        1.93
  WS02006239           JUNCTION     1.07     2.03     9.24     0  01:35        1.78
  WS02006240           JUNCTION     1.01     2.10     9.39     0  01:35        1.62
  WS02006242           JUNCTION     1.06     1.55     8.82     0  01:35        1.55
  WS02006243           JUNCTION     0.96     1.48     8.90     0  01:35        1.36
  WS02006245           JUNCTION     0.94     1.41     8.89     0  01:35        1.26
  WS02006247           JUNCTION     0.95     1.42     8.92     0  01:35        1.23
  WS02006248           JUNCTION     0.90     1.10     8.69     0  01:35        1.10
  WS02006249           JUNCTION     0.91     1.09     8.69     0  01:35        1.09
  WS02006251           JUNCTION     1.10     2.17     9.84     0  01:59        2.11
  WS02006252           JUNCTION     0.72     1.50     9.74     0  01:30        1.50
  WS02006253           JUNCTION     1.20     2.99    10.63     0  01:59        2.91
  WS02006256           JUNCTION     1.38     2.35     9.28     0  00:00        2.35
  WS02006280           JUNCTION     0.41     1.75    10.02     0  01:59        1.73
  WS02006284           JUNCTION     0.67     1.95    10.34     0  01:59        1.94
  WS02006287           JUNCTION     0.39     1.74    10.69     0  02:05        1.72
  WSF200               JUNCTION     0.32     0.52     5.75     0  02:06        0.52
  YS02001580           JUNCTION     0.15     1.05     9.59     0  01:55        0.77
  YS02001583           JUNCTION     0.18     1.02     9.51     0  01:55        0.82
  YS02001586           JUNCTION     0.29     1.13     9.30     0  01:55        1.13
  YS02001590           JUNCTION     0.41     1.40     9.26     0  01:55        1.37
  YS02001593           JUNCTION     0.34     1.33     9.20     0  01:55        1.28
  YS02001596           JUNCTION     0.49     1.68     9.10     0  01:55        1.65
  YS02001600           JUNCTION     0.64     1.87     9.00     0  01:55        1.86
  YS02001601           JUNCTION     0.86     2.06     8.90     0  01:55        2.06
  YS02001602           JUNCTION     0.76     1.87     8.77     0  01:55        1.87
  YS02001605           JUNCTION     0.72     1.77     8.68     0  01:59        1.77
  YS02001607           JUNCTION     0.70     1.65     8.49     0  02:06        1.64
  YS02001610           JUNCTION     0.75     1.68     8.48     0  01:58        1.68
  YS02001613           JUNCTION     0.71     1.66     8.50     0  02:03        1.65
  YS02001616           JUNCTION     0.64     1.59     8.50     0  02:04        1.58
  YS02001619           JUNCTION     0.62     1.58     8.51     0  02:00        1.57
  YS02001622           JUNCTION     0.62     1.56     8.46     0  02:04        1.55
  YS02001625           JUNCTION     0.89     1.78     8.38     0  01:58        1.78
  YS02001629           JUNCTION     0.88     1.85     8.40     0  01:59        1.85
  YS02001633           JUNCTION     0.96     2.00     8.45     0  02:00        1.99
  YS02001641           JUNCTION     0.94     1.95     8.39     0  02:00        1.94
  YS02001644           JUNCTION     0.94     1.92     8.35     0  02:00        1.92
  YS02001647           JUNCTION     0.74     1.77     8.38     0  02:04        1.74
  YS02001649           JUNCTION     0.92     2.00     8.39     0  02:04        1.96
  YS02001652           JUNCTION     0.73     1.87     8.46     0  02:04        1.79
  YS02001655           JUNCTION     0.53     1.70     8.55     0  02:04        1.57
  YS02001658           JUNCTION     0.36     1.72     8.86     0  02:00        1.31
  YS02001661           JUNCTION     0.27     1.31     8.72     0  02:04        1.08
  YS02001664           JUNCTION     0.08     0.51     8.44     0  02:04        0.50
  YS02001745           JUNCTION     0.16     0.78     8.30     0  02:05        0.78
  YS02001748           JUNCTION     0.38     1.43     8.51     0  02:01        1.21
  YS02001751           JUNCTION     0.49     1.50     8.38     0  02:01        1.40
  YS02001754           JUNCTION     0.70     1.69     8.30     0  02:05        1.68
  YS02001757           JUNCTION     1.01     2.03     8.29     0  02:04        2.02
  YS02001759           JUNCTION     0.92     1.99     8.36     0  02:04        1.97
  YS02001762           JUNCTION     0.89     1.97     8.37     0  02:04        1.94
  YS02001765           JUNCTION     0.85     1.93     8.38     0  02:04        1.90
  YS02001767           JUNCTION     0.82     1.90     8.39     0  02:04        1.88
  YS02001770           JUNCTION     0.82     1.92     8.41     0  02:04        1.90
  YS02001774           JUNCTION     0.89     1.97     8.40     0  02:04        1.97
  YS02001779           JUNCTION     0.64     1.68     8.37     0  01:58        1.68
  YS02001783           JUNCTION     0.32     1.23     7.37     0  01:59        1.22
  YS02001784           JUNCTION     0.33     1.12     7.19     0  01:59        1.11
  YS02001786           JUNCTION     0.27     0.88     6.91     0  01:59        0.87
  YS02001788           JUNCTION     0.20     0.62     6.60     0  02:02        0.62
  YS02001790           JUNCTION     0.23     0.72     6.37     0  02:02        0.72
  YS02001791           JUNCTION     0.14     0.51     5.98     0  02:00        0.45
  YS02001793           JUNCTION     0.09     0.93     5.76     0  02:00        0.53
  YS02001882           JUNCTION     0.39     1.64     8.36     0  01:59        1.63
  YS02001884           JUNCTION     0.49     1.74     8.36     0  01:59        1.73
  YS02001887           JUNCTION     0.56     1.81     8.35     0  02:04        1.81
  YS02001890           JUNCTION     0.59     1.81     8.32     0  01:59        1.81
  YS02001895           JUNCTION     0.36     1.57     8.32     0  01:59        1.56
  YS02001898           JUNCTION     0.37     1.57     8.31     0  01:59        1.56
  YS02001901           JUNCTION     0.48     1.68     8.29     0  01:59        1.67
  YS02001904           JUNCTION     0.46     1.64     8.27     0  01:59        1.63
  YS02001907           JUNCTION     0.79     1.96     8.25     0  01:59        1.96
  YS02001910           JUNCTION     0.59     1.99     8.49     0  02:00        1.85
  YS02001915           JUNCTION     0.39     1.94     8.66     0  02:00        1.72
  YS02001918           JUNCTION     0.22     1.81     8.88     0  02:00        1.41
  YS02001920           JUNCTION     0.30     2.01     9.02     0  02:00        1.49
  YS02001923           JUNCTION     0.17     1.87     9.13     0  02:00        1.25
  YS02001926           JUNCTION     0.20     1.75     9.20     0  02:00        1.07
  YS02001929           JUNCTION     0.12     1.78     9.47     0  02:00        0.82
  YS02006553           JUNCTION     0.79     1.97     8.26     0  02:02        1.97
  YS02006556           JUNCTION     0.76     1.95     8.26     0  02:03        1.94
  YS02006558           JUNCTION     0.80     1.99     8.26     0  02:03        1.99
  YS02006561           JUNCTION     0.20     0.92     7.58     0  01:59        0.89
  YS02163301           JUNCTION     0.90     1.91     8.43     0  02:00        1.90
  YS02163601           JUNCTION     1.00     2.02     8.42     0  02:00        2.01
  YS02164001           JUNCTION     0.93     1.94     8.40     0  02:00        1.93
  YSB1154              JUNCTION     0.54     1.90    10.95     0  02:04        1.89
  YSB1171              JUNCTION     0.69     1.95    10.85     0  01:59        1.95
  YSB1174              JUNCTION     0.49     1.79    10.90     0  02:04        1.78
  YSB6556              JUNCTION     0.43     1.73    10.90     0  02:04        1.73
  CC-1                 OUTFALL      0.00     0.00     0.00     0  00:00        0.00
  CC-2                 OUTFALL      0.00     0.00     0.00     0  00:00        0.00
  JK-1                 OUTFALL      0.00     0.00     0.00     0  00:00        0.00
  JK-2                 OUTFALL      0.00     0.00     0.00     0  00:00        0.00
  WSC                  OUTFALL      0.36     0.51     1.18     0  02:08        0.51
  CC-storage           STORAGE      1.61     2.18     7.68     0  02:30        2.18
  JK-storage           STORAGE      0.23     4.94     5.74     0  02:00        4.64
  XR-storage           STORAGE      7.87     8.66     6.66     0  06:00        8.66
  
  
  *******************
  Node Inflow Summary
  *******************
  
  -------------------------------------------------------------------------------------------------
                                  Maximum  Maximum                  Lateral       Total        Flow
                                  Lateral    Total  Time of Max      Inflow      Inflow     Balance
                                   Inflow   Inflow   Occurrence      Volume      Volume       Error
  Node                 Type           LPS      LPS  days hr:min    10^6 ltr    10^6 ltr     Percent
  -------------------------------------------------------------------------------------------------
  HS02004478           JUNCTION      0.00  2300.60     0  02:05           0        8.99      -0.005
  HS02004479           JUNCTION      0.00   401.31     0  01:59           0       0.868       0.128
  HS02004480           JUNCTION      0.00  2091.02     0  01:58           0         6.8       0.046
  HS02004770           JUNCTION   1384.25  1384.25     0  02:05        2.68        2.94       0.117
  HS02004777           JUNCTION      0.03   751.39     0  01:56    0.000648        2.01       0.278
  HS02004785           JUNCTION      0.15   773.22     0  01:56     0.00324        2.01       0.037
  HS02004788           JUNCTION    503.24   938.11     0  01:56        1.02        3.03       0.002
  HS02004792           JUNCTION   1677.24  2461.12     0  02:05        3.47         6.5       0.016
  HS02004799           JUNCTION    320.84  1729.23     0  01:57       0.582        6.07       0.053
  HS02004802           JUNCTION      0.00  1189.36     0  02:05           0        2.28       0.185
  HS02004807           JUNCTION    400.22  1188.36     0  02:05       0.712        2.32       0.190
  HS02004817           JUNCTION      0.60   789.76     0  02:05       0.013        1.66       1.034
  HS02004824           JUNCTION    530.21   788.51     0  02:05        1.26        1.88       0.034
  HS02004830           JUNCTION      0.15   614.01     0  01:57     0.00324       0.861       0.118
  HS02004837           JUNCTION    370.14   806.81     0  01:57       0.812        1.25       0.081
  HS02004842           JUNCTION      0.00   820.34     0  01:57           0       0.839       1.580
  HS02004848           JUNCTION    479.67  1045.36     0  01:57        1.23         1.9      -0.004
  HS02004852           JUNCTION      0.00  1017.02     0  01:59           0        1.74      -0.012
  HS02004856           JUNCTION    162.93  1065.42     0  01:58       0.294        2.04       0.076
  HS02004862           JUNCTION    220.94  1195.55     0  01:58       0.519        2.55      -0.008
  HS02004870           JUNCTION    217.76  1181.73     0  02:05        0.39        2.94       0.019
  HS02004876           JUNCTION    214.05  1395.84     0  02:05       0.404        3.35       0.026
  HS02004881           JUNCTION    117.93  1513.94     0  02:05       0.206        3.55       0.016
  HS02004901           JUNCTION    333.80   591.40     0  02:05         0.6       0.938       0.219
  WS02001211           JUNCTION      7.35   206.93     0  02:55       0.159        4.02       0.860
  WS02001212           JUNCTION      0.00   212.98     0  02:55           0        3.98       0.427
  WS02001213           JUNCTION      0.00   215.71     0  02:54           0        3.97       0.579
  WS02003059           JUNCTION      0.00   221.99     0  02:54           0        3.95       1.021
  WS02003060           JUNCTION     16.53  1496.87     0  02:06       0.357        15.2       0.197
  WS02003066           JUNCTION      0.00  1294.58     0  02:05           0          11       0.049
  WS02003067           JUNCTION      0.00  1294.30     0  02:05           0          11       0.097
  WS02003069           JUNCTION      0.32  1496.98     0  02:06     0.00691        15.2       0.210
  WS02003072           JUNCTION      0.00  1496.74     0  02:07           0        15.2       0.252
  WS02003073           JUNCTION      1.82  1498.59     0  02:07      0.0393        15.2       0.287
  WS02004138           JUNCTION      0.00   190.00     0  00:29           0        3.88       0.080
  WS02004139           JUNCTION      0.32   192.76     0  00:29     0.00693        3.89       0.715
  WS02004401           JUNCTION      0.00  1295.49     0  02:05           0        11.2       0.217
  WS02004402           JUNCTION      0.00  1295.57     0  02:05           0        11.2       0.202
  WS02004403           JUNCTION      0.00  1295.43     0  02:04           0        11.2       0.180
  WS02004404           JUNCTION      0.16  1295.65     0  02:05      0.0035        11.2       0.132
  WS02004405           JUNCTION      0.04  1296.02     0  02:05    0.000823        11.2       0.202
  WS02004406           JUNCTION      0.00  1295.68     0  02:05           0        11.1       0.323
  WS02004407           JUNCTION      0.00  1295.79     0  02:04           0        11.1       0.082
  WS02004409           JUNCTION      0.00  1294.01     0  02:05           0        11.1       0.184
  WS02004410           JUNCTION      0.00  1294.22     0  02:05           0        11.1       0.201
  WS02004411           JUNCTION      0.00  1294.26     0  02:05           0        11.1       0.203
  WS02004412           JUNCTION      0.00  1294.25     0  02:05           0          11       0.216
  WS02004413           JUNCTION      0.00  1294.10     0  02:05           0          11       0.314
  WS02006109           JUNCTION      1.23  1287.62     0  02:05      0.0266        11.1       0.199
  WS02006110           JUNCTION      0.00  1122.47     0  02:23           0        10.9       0.205
  WS02006111           JUNCTION      0.00  1122.72     0  02:23           0        10.8       0.036
  WS02006112           JUNCTION    271.56  1295.01     0  02:04       0.493        11.3       0.265
  WS02006113           JUNCTION      0.00  1122.57     0  02:23           0        10.8       0.118
  WS02006115           JUNCTION      0.00  1295.16     0  02:05           0        11.3       0.220
  WS02006116           JUNCTION      0.00  1295.35     0  02:05           0        11.3       0.150
  WS02006228           JUNCTION      0.00  1286.47     0  02:05           0        11.1       0.153
  WS02006229           JUNCTION      0.00  2301.17     0  02:04           0        13.6       0.106
  WS02006230           JUNCTION     10.28  1024.86     0  02:05       0.222        7.15       0.230
  WS02006231           JUNCTION      0.00   453.31     0  01:59           0        5.97       0.192
  WS02006232           JUNCTION      0.00   453.42     0  02:19           0        5.97       0.302
  WS02006234           JUNCTION      0.00   453.17     0  01:58           0        5.97       0.182
  WS02006235           JUNCTION      0.00   419.32     0  03:42           0        5.95       0.178
  WS02006238           JUNCTION      0.00   419.20     0  03:42           0        5.83       0.133
  WS02006239           JUNCTION      0.00   419.16     0  03:42           0        5.84       0.167
  WS02006240           JUNCTION      0.00   419.09     0  03:42           0        5.85       0.274
  WS02006242           JUNCTION      0.00   430.60     0  01:34           0        5.86       0.318
  WS02006243           JUNCTION      0.00   455.67     0  01:34           0        5.46       0.240
  WS02006245           JUNCTION      0.00   479.84     0  01:33           0        5.47       0.265
  WS02006247           JUNCTION      0.00   480.22     0  01:33           0        5.48       0.166
  WS02006248           JUNCTION      0.00   497.60     0  01:32           0        5.76       0.155
  WS02006249           JUNCTION      0.00  1346.40     0  02:05           0        9.41       0.172
  WS02006251           JUNCTION      0.08  1545.00     0  02:05     0.00166         9.5       0.178
  WS02006252           JUNCTION      0.00   468.24     0  02:10           0        6.18       0.012
  WS02006253           JUNCTION     30.10  1544.69     0  02:05      0.0498        3.61       0.356
  WS02006256           JUNCTION      0.00   300.00     0  00:00           0       0.917      -0.161
  WS02006280           JUNCTION      0.00  2300.59     0  02:05           0        8.97       0.000
  WS02006284           JUNCTION      0.10  2301.03     0  02:05     0.00207        8.97       0.016
  WS02006287           JUNCTION      0.00  2300.67     0  02:05           0        8.97       0.013
  WSF200               JUNCTION      0.00  1294.70     0  02:05           0          11       0.051
  YS02001580           JUNCTION      0.00    82.63     0  01:55           0     0.00398      -0.266
  YS02001583           JUNCTION      0.00   134.60     0  01:55           0      0.0152      -3.685
  YS02001586           JUNCTION    617.49   617.49     0  02:10        1.65        1.66       0.066
  YS02001590           JUNCTION      0.00   318.10     0  02:00           0        1.37       0.029
  YS02001593           JUNCTION      0.00   318.30     0  02:00           0        1.37       0.016
  YS02001596           JUNCTION      0.00   318.13     0  02:00           0        1.37      -0.021
  YS02001600           JUNCTION      0.00   318.12     0  02:00           0        1.37      -0.042
  YS02001601           JUNCTION   1087.38  1404.96     0  02:05        2.28        3.65       0.037
  YS02001602           JUNCTION      0.00   501.29     0  01:54           0        2.34       0.034
  YS02001605           JUNCTION      0.00   501.26     0  01:54           0        2.18       0.046
  YS02001607           JUNCTION      0.00   500.89     0  01:54           0        2.18       0.106
  YS02001610           JUNCTION      0.00   556.86     0  02:10           0         2.3       0.121
  YS02001613           JUNCTION      0.00   500.97     0  01:54           0        1.83       0.111
  YS02001616           JUNCTION      0.00   503.77     0  01:54           0        1.83       0.027
  YS02001619           JUNCTION   1076.44  1076.44     0  02:10        2.64        4.35      -0.005
  YS02001622           JUNCTION      0.00   910.12     0  01:57           0        4.22       0.007
  YS02001625           JUNCTION      0.00  1182.38     0  02:05           0        4.42       0.394
  YS02001629           JUNCTION      0.00   911.39     0  01:57           0        3.11      -0.100
  YS02001633           JUNCTION    817.50  1311.30     0  01:57        1.66        4.57       0.114
  YS02001641           JUNCTION      0.00  1307.04     0  01:57           0        4.36       0.087
  YS02001644           JUNCTION    731.21  1672.51     0  01:58        1.44        5.79       0.081
  YS02001647           JUNCTION      0.00  1674.08     0  01:58           0        5.37       0.011
  YS02001649           JUNCTION      0.00  1856.24     0  01:57           0        6.69       0.115
  YS02001652           JUNCTION      0.00   739.23     0  02:05           0        1.32      -0.039
  YS02001655           JUNCTION      0.15   738.92     0  02:05     0.00332        1.32       0.079
  YS02001658           JUNCTION      0.00   738.41     0  02:05           0        1.32      -0.033
  YS02001661           JUNCTION      0.00   882.20     0  02:04           0        1.31      -0.169
  YS02001664           JUNCTION    713.80   713.80     0  02:05        1.31        1.31       0.004
  YS02001745           JUNCTION    453.43   453.43     0  02:05       0.798       0.802       0.172
  YS02001748           JUNCTION      0.04   507.12     0  02:01    0.000972       0.802      -0.300
  YS02001751           JUNCTION      0.01   459.85     0  02:05    0.000238       0.805       0.149
  YS02001754           JUNCTION      0.26   460.06     0  02:05     0.00562       0.817      -0.109
  YS02001757           JUNCTION      0.00  3014.06     0  02:02           0        10.1       0.365
  YS02001759           JUNCTION    629.47  1208.01     0  02:03         1.1        2.62       0.212
  YS02001762           JUNCTION      0.00   673.12     0  02:01           0        1.53       0.276
  YS02001765           JUNCTION      0.00   672.98     0  02:01           0        1.53       0.259
  YS02001767           JUNCTION      0.54   672.84     0  02:01      0.0116        1.53       0.283
  YS02001770           JUNCTION    893.26   893.26     0  02:05        1.68        1.72       0.170
  YS02001774           JUNCTION      0.00   349.20     0  02:05           0       0.213       1.917
  YS02001779           JUNCTION      0.01   349.97     0  02:05    0.000108       0.169      -0.330
  YS02001783           JUNCTION      0.00  1160.89     0  02:04           0        4.19       0.008
  YS02001784           JUNCTION      1.06  1162.05     0  02:05      0.0229        4.21       0.014
  YS02001786           JUNCTION      0.06  1161.63     0  02:05     0.00122        4.21       0.018
  YS02001788           JUNCTION      0.07  1162.06     0  02:05     0.00153        4.21       0.009
  YS02001790           JUNCTION      0.15  1173.68     0  02:03     0.00335        4.21       0.014
  YS02001791           JUNCTION      0.00  1281.97     0  02:02           0        4.21      -0.019
  YS02001793           JUNCTION      0.00  1350.78     0  02:01           0        4.21      -0.000
  YS02001882           JUNCTION      0.00    36.64     0  01:56           0      0.0127       6.291
  YS02001884           JUNCTION      0.00    76.29     0  01:56           0      0.0485       5.710
  YS02001887           JUNCTION    671.89   671.89     0  02:05        1.15        1.18       0.397
  YS02001890           JUNCTION      0.00   672.01     0  02:05           0        1.14       0.475
  YS02001895           JUNCTION      0.00   516.94     0  02:08           0         1.1       0.160
  YS02001898           JUNCTION      0.00   517.10     0  02:08           0        1.09       0.039
  YS02001901           JUNCTION      0.00   517.09     0  02:08           0         1.1       0.321
  YS02001904           JUNCTION      0.00   517.06     0  02:08           0         1.1       0.277
  YS02001907           JUNCTION      0.00  1695.46     0  02:04           0        3.59       0.524
  YS02001910           JUNCTION      0.00  1181.42     0  02:04           0         2.5       0.299
  YS02001915           JUNCTION    791.05  1181.31     0  02:04         1.6        2.53       0.068
  YS02001918           JUNCTION      0.00   454.55     0  02:00           0       0.957       0.008
  YS02001920           JUNCTION      2.87   452.82     0  02:00       0.062       0.941       0.111
  YS02001923           JUNCTION      0.04   427.62     0  02:00    0.000814       0.866       0.015
  YS02001926           JUNCTION      0.05   423.97     0  02:00     0.00113       0.849      -0.033
  YS02001929           JUNCTION    382.38   382.38     0  02:05        0.84        0.84      -0.064
  YS02006553           JUNCTION      0.00   794.47     0  02:22           0        2.56       0.484
  YS02006556           JUNCTION      0.00   794.13     0  02:22           0        2.57       0.330
  YS02006558           JUNCTION    914.67  1161.65     0  02:04        1.68        4.22       0.089
  YS02006561           JUNCTION      0.00  1160.78     0  02:04           0        4.19      -0.001
  YS02163301           JUNCTION      0.00   913.11     0  01:57           0        3.11       0.080
  YS02163601           JUNCTION      0.11  1310.50     0  01:57     0.00238        4.36       0.148
  YS02164001           JUNCTION      0.00  1309.95     0  01:57           0        4.35       0.065
  YSB1154              JUNCTION    368.53   368.53     0  02:05       0.695       0.696       0.221
  YSB1171              JUNCTION      0.00   854.46     0  02:05           0        1.29       0.524
  YSB1174              JUNCTION    315.53   315.53     0  02:05        0.53        0.53       0.262
  YSB6556              JUNCTION      0.00   368.47     0  02:05           0       0.696       0.200
  CC-1                 OUTFALL       0.00   683.00     0  02:10           0        2.05       0.000
  CC-2                 OUTFALL       0.00   683.00     0  02:20           0       0.821       0.000
  JK-1                 OUTFALL       0.00  1000.00     0  00:00           0        3.16       0.000
  JK-2                 OUTFALL       0.00  1000.00     0  01:40           0         1.8       0.000
  WSC                  OUTFALL       0.00  1498.73     0  02:08           0        15.1       0.000
  CC-storage           STORAGE       0.00  3014.28     0  02:02           0        12.3       0.097
  JK-storage           STORAGE       0.00  1710.07     0  02:00           0        4.36     -25.794
  XR-storage           STORAGE     200.00   200.00     0  00:00        4.32        4.92       0.001
  
  
  **********************
  Node Surcharge Summary
  **********************
  
  Surcharging occurs when water rises above the top of the highest conduit.
  ---------------------------------------------------------------------
                                               Max. Height   Min. Depth
                                   Hours       Above Crown    Below Rim
  Node                 Type      Surcharged         Meters       Meters
  ---------------------------------------------------------------------
  HS02004478           JUNCTION        0.51          0.662        0.278
  HS02004479           JUNCTION        0.65          0.896        0.154
  HS02004480           JUNCTION        0.69          0.960        0.140
  HS02004770           JUNCTION        0.59          0.720        0.000
  HS02004777           JUNCTION        0.59          0.780        0.000
  HS02004785           JUNCTION        0.54          0.790        0.000
  HS02004788           JUNCTION        0.53          0.720        0.000
  HS02004792           JUNCTION        0.66          0.900        0.000
  HS02004799           JUNCTION        0.79          1.060        0.000
  HS02004802           JUNCTION        0.71          1.085        0.125
  HS02004807           JUNCTION        0.69          1.220        0.000
  HS02004817           JUNCTION        1.36          1.715        0.025
  HS02004824           JUNCTION        0.53          1.307        0.003
  HS02004830           JUNCTION        0.50          1.330        0.000
  HS02004837           JUNCTION        0.46          1.275        0.065
  HS02004842           JUNCTION        0.60          1.520        0.000
  HS02004848           JUNCTION        0.42          1.370        0.000
  HS02004852           JUNCTION        0.45          1.420        0.000
  HS02004856           JUNCTION        0.43          1.300        0.000
  HS02004862           JUNCTION        0.47          1.300        0.000
  HS02004870           JUNCTION        0.48          1.299        0.101
  HS02004876           JUNCTION        0.57          1.323        0.237
  HS02004881           JUNCTION        0.52          1.065        0.385
  HS02004901           JUNCTION        0.60          0.720        0.000
  WS02004401           JUNCTION        1.65          0.836        0.824
  WS02004402           JUNCTION        1.69          0.783        0.957
  WS02004403           JUNCTION        1.69          0.704        1.326
  WS02004404           JUNCTION        1.86          0.722        2.058
  WS02004405           JUNCTION        1.82          0.674        2.126
  WS02004406           JUNCTION        1.78          0.557        1.893
  WS02004409           JUNCTION        1.12          0.378        1.982
  WS02004410           JUNCTION        1.07          0.291        2.249
  WS02004411           JUNCTION        0.95          0.196        2.334
  WS02004412           JUNCTION        0.83          0.100        2.210
  WS02004413           JUNCTION        1.46          0.142        2.058
  WS02006109           JUNCTION        4.44          1.820        0.000
  WS02006110           JUNCTION        2.14          1.472        0.378
  WS02006111           JUNCTION        1.43          0.908        0.962
  WS02006112           JUNCTION        2.35          1.348        0.332
  WS02006113           JUNCTION        1.45          1.009        0.921
  WS02006115           JUNCTION        1.57          0.922        1.328
  WS02006116           JUNCTION        1.58          0.865        1.425
  WS02006228           JUNCTION        4.44          2.198        0.002
  WS02006229           JUNCTION        1.00          1.043        0.027
  WS02006230           JUNCTION        1.93          1.570        0.000
  WS02006231           JUNCTION        2.18          1.479        0.051
  WS02006232           JUNCTION        4.42          1.480        0.000
  WS02006234           JUNCTION        3.98          1.240        0.000
  WS02006235           JUNCTION        4.42          1.290        0.000
  WS02006238           JUNCTION        4.42          1.424        0.006
  WS02006239           JUNCTION        4.42          1.290        0.000
  WS02006240           JUNCTION        4.42          1.390        0.000
  WS02006242           JUNCTION        4.42          0.820        0.000
  WS02006243           JUNCTION        4.42          0.770        0.000
  WS02006245           JUNCTION        4.42          0.695        0.155
  WS02006247           JUNCTION        4.42          0.711        0.049
  WS02006248           JUNCTION        4.42          0.380        0.000
  WS02006249           JUNCTION        4.43          0.390        0.000
  WS02006251           JUNCTION        2.34          1.145        0.035
  WS02006252           JUNCTION        4.49          1.100        0.000
  WS02006253           JUNCTION        2.40          1.949        0.531
  WS02006256           JUNCTION        4.87          2.050        0.000
  WS02006280           JUNCTION        0.82          0.695        0.085
  WS02006284           JUNCTION        0.73          0.666        0.134
  WS02006287           JUNCTION        0.61          0.736        0.154
  YS02001580           JUNCTION        0.64          0.450        0.000
  YS02001583           JUNCTION        0.65          0.376        0.124
  YS02001586           JUNCTION        0.88          0.510        0.000
  YS02001590           JUNCTION        0.98          0.749        0.001
  YS02001593           JUNCTION        0.99          0.714        0.126
  YS02001596           JUNCTION        1.17          0.949        0.121
  YS02001600           JUNCTION        1.38          1.190        0.000
  YS02001601           JUNCTION        2.36          1.440        0.000
  YS02001602           JUNCTION        2.20          1.270        0.000
  YS02001605           JUNCTION        2.17          1.175        0.005
  YS02001607           JUNCTION        1.13          0.646        0.034
  YS02001610           JUNCTION        1.17          0.680        0.000
  YS02001613           JUNCTION        1.13          0.656        0.044
  YS02001616           JUNCTION        1.08          0.590        0.020
  YS02001619           JUNCTION        1.06          0.580        0.030
  YS02001622           JUNCTION        1.07          0.560        0.060
  YS02001625           JUNCTION        1.69          0.780        0.000
  YS02001629           JUNCTION        1.01          0.470        0.000
  YS02001633           JUNCTION        2.07          0.978        0.082
  YS02001641           JUNCTION        2.14          0.952        0.148
  YS02001644           JUNCTION        2.14          0.920        0.000
  YS02001647           JUNCTION        1.56          0.770        0.130
  YS02001649           JUNCTION        2.20          1.000        0.050
  YS02001652           JUNCTION        1.49          0.836        0.294
  YS02001655           JUNCTION        0.85          0.701        0.499
  YS02001658           JUNCTION        0.42          0.722        0.578
  YS02001661           JUNCTION        0.01          0.244        1.146
  YS02001748           JUNCTION        0.32          0.349        0.841
  YS02001751           JUNCTION        0.69          0.497        0.703
  YS02001754           JUNCTION        1.34          0.638        0.512
  YS02001757           JUNCTION        2.56          1.033        0.177
  YS02001759           JUNCTION        2.27          0.991        0.219
  YS02001762           JUNCTION        2.16          0.971        0.179
  YS02001765           JUNCTION        2.02          0.930        0.170
  YS02001767           JUNCTION        1.91          0.902        0.128
  YS02001770           JUNCTION        1.81          0.887        0.033
  YS02001774           JUNCTION        2.10          0.974        0.076
  YS02001779           JUNCTION        1.13          0.680        0.000
  YS02001783           JUNCTION        0.57          0.433        1.167
  YS02001784           JUNCTION        0.54          0.322        1.168
  YS02001786           JUNCTION        0.42          0.077        1.353
  YS02001882           JUNCTION        0.51          0.644        0.186
  YS02001884           JUNCTION        0.52          0.678        0.192
  YS02001887           JUNCTION        0.56          0.763        0.187
  YS02001890           JUNCTION        0.57          0.760        0.000
  YS02001895           JUNCTION        0.50          0.570        0.180
  YS02001898           JUNCTION        0.49          0.542        0.198
  YS02001901           JUNCTION        0.54          0.681        0.189
  YS02001904           JUNCTION        0.53          0.640        0.210
  YS02001907           JUNCTION        0.81          0.950        0.000
  YS02001910           JUNCTION        0.60          0.987        0.113
  YS02001915           JUNCTION        0.51          0.941        0.059
  YS02001918           JUNCTION        0.41          0.810        0.000
  YS02001920           JUNCTION        0.42          1.015        0.125
  YS02001923           JUNCTION        0.02          0.658        0.162
  YS02001926           JUNCTION        0.04          0.751        0.149
  YS02001929           JUNCTION        0.01          0.780        0.000
  YS02006553           JUNCTION        0.84          0.974        0.216
  YS02006556           JUNCTION        0.71          0.908        0.442
  YS02006558           JUNCTION        0.69          0.891        0.509
  YS02006561           JUNCTION        0.38          0.116        1.034
  YS02163301           JUNCTION        1.94          0.910        0.120
  YS02163601           JUNCTION        2.29          1.022        0.058
  YS02164001           JUNCTION        2.08          0.944        0.156
  YSB1154              JUNCTION        0.94          1.195        0.205
  YSB1171              JUNCTION        0.95          1.100        0.000
  YSB1174              JUNCTION        0.84          1.087        0.163
  YSB6556              JUNCTION        0.76          1.030        0.070
  
  
  *********************
  Node Flooding Summary
  *********************
  
  Flooding refers to all water that overflows a node, whether it ponds or not.
  --------------------------------------------------------------------------
                                                             Total   Maximum
                                 Maximum   Time of Max       Flood    Ponded
                        Hours       Rate    Occurrence      Volume     Depth
  Node                 Flooded       LPS   days hr:min    10^6 ltr    Meters
  --------------------------------------------------------------------------
  HS02004770              0.39    845.85      0  02:05       0.591     0.000
  HS02004777              0.01     67.49      0  01:56       0.001     0.000
  HS02004785              0.01     94.80      0  01:56       0.000     0.000
  HS02004788              0.01    294.20      0  01:56       0.001     0.000
  HS02004792              0.39   1318.67      0  02:05       1.017     0.000
  HS02004799              0.19    179.87      0  02:05       0.058     0.000
  HS02004807              0.01      0.81      0  02:04       0.000     0.000
  HS02004830              0.01    201.16      0  01:57       0.000     0.000
  HS02004842              0.01    120.11      0  01:59       0.001     0.000
  HS02004848              0.01    102.80      0  01:59       0.000     0.000
  HS02004852              0.01    214.04      0  01:59       0.000     0.000
  HS02004856              0.01    139.73      0  01:59       0.000     0.000
  HS02004862              0.01     32.07      0  01:59       0.000     0.000
  HS02004901              0.46    591.36      0  02:05       0.680     0.000
  WS02006109              0.44    263.97      0  02:05       0.246     0.000
  WS02006230              0.74    572.15      0  02:05       0.996     0.000
  WS02006232              0.18      0.67      0  02:18       0.000     0.000
  WS02006234              0.80    128.42      0  02:04       0.270     0.000
  WS02006235              0.01     23.94      0  01:35       0.000     0.000
  WS02006239              0.01     17.38      0  01:35       0.000     0.000
  WS02006240              0.01     27.17      0  01:35       0.000     0.000
  WS02006242              0.95    137.44      0  02:00       0.409     0.000
  WS02006243              0.01     77.55      0  01:35       0.000     0.000
  WS02006248              1.27    339.77      0  01:54       1.303     0.000
  WS02006249              2.09   1285.45      0  02:05       4.676     0.000
  WS02006252              0.36    467.30      0  02:10       0.267     0.000
  WS02006256              0.87    294.26      0  02:40       0.552     0.000
  YS02001580              0.01     47.11      0  01:55       0.000     0.000
  YS02001586              0.49    300.08      0  02:10       0.278     0.000
  YS02001600              0.01      1.71      0  01:55       0.000     0.000
  YS02001601              0.78   1007.06      0  02:05       1.310     0.000
  YS02001602              0.75     61.93      0  02:00       0.153     0.000
  YS02001610              0.60    556.83      0  02:10       0.588     0.000
  YS02001625              0.66   1182.05      0  02:05       1.500     0.000
  YS02001629              0.06     74.31      0  02:02       0.010     0.000
  YS02001644              0.27    731.27      0  02:05       0.408     0.000
  YS02001779              0.22    349.76      0  02:05       0.151     0.000
  YS02001890              0.16    156.78      0  02:05       0.040     0.000
  YS02001907              0.35   1448.32      0  02:05       1.029     0.000
  YS02001918              0.01     50.76      0  02:00       0.000     0.000
  YS02001929              0.01    164.88      0  02:00       0.000     0.000
  YSB1171                 0.28    854.33      0  02:05       0.482     0.000
  
  
  **********************
  Storage Volume Summary
  **********************
  
  --------------------------------------------------------------------------------------------------
                         Average     Avg  Evap Exfil       Maximum     Max    Time of Max    Maximum
                          Volume    Pcnt  Pcnt  Pcnt        Volume    Pcnt     Occurrence    Outflow
  Storage Unit           1000 m3    Full  Loss  Loss       1000 m3    Full    days hr:min        LPS
  --------------------------------------------------------------------------------------------------
  CC-storage               4.500      70     0     0         6.067      95       0  02:30    1766.00
  JK-storage               0.011       4     0     0         0.248      85       0  02:00    2300.00
  XR-storage               0.944      66     0     0         1.039      72       0  06:00     190.00
  
  
  ***********************
  Outfall Loading Summary
  ***********************
  
  -----------------------------------------------------------
                         Flow       Avg       Max       Total
                         Freq      Flow      Flow      Volume
  Outfall Node           Pcnt       LPS       LPS    10^6 ltr
  -----------------------------------------------------------
  CC-1                  20.06    683.00    683.00       2.052
  CC-2                   9.49    683.00    683.00       0.821
  JK-1                  81.43    248.82   1000.00       3.162
  JK-2                  26.38    476.15   1000.00       1.803
  WSC                   99.96    849.40   1498.73      15.121
  -----------------------------------------------------------
  System                47.47   2940.36   1498.73      22.957
  
  
  ********************
  Link Flow Summary
  ********************
  
  -----------------------------------------------------------------------------
                                 Maximum  Time of Max   Maximum    Max/    Max/
                                  |Flow|   Occurrence   |Veloc|    Full    Full
  Link                 Type          LPS  days hr:min     m/sec    Flow   Depth
  -----------------------------------------------------------------------------
  1                    CONDUIT   1498.73     0  02:08      3.69    0.52    0.51
  HS02004478WS02006287 CONDUIT   2300.67     0  02:05      2.61    0.64    1.00
  HS02004479HS02004480 CONDUIT    399.99     0  01:59      0.57    0.39    1.00
  HS02004480HS02004478 CONDUIT   2090.69     0  01:57      2.99    8.81    1.00
  HS02004770HS02004777 CONDUIT    751.36     0  01:56      1.07    1.37    1.00
  HS02004777HS02004785 CONDUIT    773.07     0  01:56      1.17    0.95    1.00
  HS02004785HS02004788 CONDUIT    717.50     0  01:56      1.36    5.41    1.00
  HS02004788HS02004792 CONDUIT    814.29     0  02:24      1.45    0.54    1.00
  HS02004792HS02004799 CONDUIT   1568.13     0  01:57      2.24    0.96    1.00
  HS02004799HS02004480 CONDUIT   1729.04     0  01:57      2.47    2.18    1.00
  HS02004802HS02004478 CONDUIT   1189.83     0  02:05      1.70    1.05    1.00
  HS02004807HS02004802 CONDUIT   1189.36     0  02:05      1.70    2.27    1.00
  HS02004817HS02004807 CONDUIT    790.35     0  02:05      1.13    0.47    1.00
  HS02004817HS02004824 CONDUIT    789.16     0  02:05      1.13    0.36    1.00
  HS02004824HS02004830 CONDUIT    613.86     0  01:57      0.89    0.80    1.00
  HS02004830HS02004837 CONDUIT    616.44     0  01:57      0.96    0.61    1.00
  HS02004837HS02004842 CONDUIT    820.34     0  01:57      1.17    0.49    1.00
  HS02004842HS02004848 CONDUIT    819.87     0  01:57      1.29    0.48    1.00
  HS02004848HS02004852 CONDUIT   1017.02     0  01:59      1.60    1.15    1.00
  HS02004852HS02004856 CONDUIT    976.11     0  01:58      1.48    1.12    1.00
  HS02004856HS02004862 CONDUIT   1079.09     0  01:58      1.69    1.08    1.00
  HS02004862HS02004870 CONDUIT   1049.88     0  01:58      1.75    1.13    1.00
  HS02004870HS02004876 CONDUIT   1182.26     0  02:05      1.69    0.78    1.00
  HS02004876HS02004881 CONDUIT   1396.46     0  02:05      2.14   14.85    1.00
  HS02004881HS02006253 CONDUIT   1514.70     0  02:05      2.23    0.30    1.00
  HS02004901HS02004770 CONDUIT    265.79     0  02:19      0.38    1.00    1.00
  WS02001211WS02001212 CONDUIT    212.98     0  02:55      0.54    0.16    0.69
  WS02001212WS02001213 CONDUIT    215.71     0  02:54      1.03    0.33    0.56
  WS02001213WS02003059 CONDUIT    221.99     0  02:54      0.47    0.37    0.89
  WS02003059WS02003060 CONDUIT    228.32     0  03:15      0.67    0.15    0.81
  WS02003060WS02003069 CONDUIT   1496.66     0  02:06      2.08    0.59    0.61
  WS02003066WSF200     CONDUIT   1294.70     0  02:05      3.25    0.22    0.38
  WS02003067WS02003066 CONDUIT   1294.58     0  02:05      1.99    0.41    0.56
  WS02003069WS02003072 CONDUIT   1496.74     0  02:07      1.89    0.72    0.66
  WS02003072WS02003073 CONDUIT   1496.77     0  02:07      2.05    3.23    0.62
  WS02004138WS02004139 CONDUIT    192.44     0  00:29      2.15    0.04    0.41
  WS02004139WS02001211 CONDUIT    199.58     0  02:55      0.54    0.25    0.60
  WS02004401WS02004402 CONDUIT   1295.57     0  02:05      1.65    1.56    1.00
  WS02004402WS02004403 CONDUIT   1295.43     0  02:04      1.65    1.86    1.00
  WS02004403WS02004404 CONDUIT   1295.49     0  02:05      1.65    0.94    1.00
  WS02004404WS02004405 CONDUIT   1295.98     0  02:05      1.65   12.70    1.00
  WS02004405WS02004406 CONDUIT   1295.68     0  02:05      1.65    2.56    1.00
  WS02004406WS02004407 CONDUIT   1295.79     0  02:04      1.70    0.58    0.96
  WS02004407WS02004409 CONDUIT   1294.01     0  02:05      1.93    0.46    0.96
  WS02004409WS02004410 CONDUIT   1294.22     0  02:05      1.65    1.67    1.00
  WS02004410WS02004411 CONDUIT   1294.26     0  02:05      1.65    1.77    1.00
  WS02004411WS02004412 CONDUIT   1294.25     0  02:05      1.65    1.84    1.00
  WS02004412WS02004413 CONDUIT   1294.10     0  02:05      1.65    0.87    1.00
  WS02004413WS02003067 CONDUIT   1294.30     0  02:05      2.01    0.55    0.77
  WS02006109WS02006110 CONDUIT   1122.47     0  02:23      2.23    2.16    1.00
  WS02006110WS02006113 CONDUIT   1122.57     0  02:23      2.23    1.02    1.00
  WS02006111WS02006112 CONDUIT   1122.61     0  02:23      2.23    0.53    1.00
  WS02006112WS02006115 CONDUIT   1295.16     0  02:05      1.65    0.76    1.00
  WS02006113WS02006111 CONDUIT   1122.72     0  02:23      2.76    1.35    1.00
  WS02006115WS02006116 CONDUIT   1295.35     0  02:05      1.65    1.66    1.00
  WS02006116WS02004401 CONDUIT   1295.49     0  02:05      1.65    1.79    1.00
  WS02006228WS02006109 CONDUIT   1286.39     0  02:05      2.56    5.62    1.00
  WS02006229WS02006228 CONDUIT   1286.47     0  02:05      2.56    4.26    1.00
  WS02006230WS02006229 CONDUIT   1014.58     0  02:05      2.64   22.58    1.00
  WS02006231WS02006230 CONDUIT    453.31     0  01:59      1.24    6.88    1.00
  WS02006232WS02006231 CONDUIT    453.42     0  02:19      1.18    0.95    1.00
  WS02006234WS02006232 CONDUIT    453.17     0  01:58      1.39    0.92    1.00
  WS02006235WS02006234 CONDUIT    419.45     0  03:42      1.09    4.43    1.00
  WS02006238WS02006235 CONDUIT    419.31     0  03:42      1.46    0.94    1.00
  WS02006239WS02006238 CONDUIT    419.20     0  03:42      1.09    1.34    1.00
  WS02006240WS02006239 CONDUIT    419.16     0  03:42      1.09    1.32    1.00
  WS02006242WS02006240 CONDUIT    419.09     0  03:42      1.13    1.66    1.00
  WS02006243WS02006242 CONDUIT    430.60     0  01:34      1.28    0.92    1.00
  WS02006245WS02006243 CONDUIT    455.67     0  01:34      1.46    1.35    1.00
  WS02006247WS02006245 CONDUIT    479.84     0  01:33      1.48    3.80    1.00
  WS02006248WS02006247 CONDUIT    480.22     0  01:33      1.37    1.05    1.00
  WS02006249WS02006248 CONDUIT    497.60     0  01:32      1.44    2.73    1.00
  WS02006251WS02006249 CONDUIT   1346.40     0  02:05      3.50    3.88    1.00
  WS02006252WS02006251 CONDUIT    408.46     0  01:35      3.25    1.50    1.00
  WS02006253WS02006251 CONDUIT   1544.93     0  02:05      4.01    4.63    1.00
  WS02006256WS02006235 CONDUIT    288.92     0  00:00      4.23    3.06    1.00
  WS02006280WS02006229 CONDUIT   2301.17     0  02:04      3.95    0.49    1.00
  WS02006284WS02006280 CONDUIT   2300.59     0  02:05      2.97    0.96    1.00
  WS02006287WS02006284 CONDUIT   2300.93     0  02:05      2.93    1.07    1.00
  WSF200WS02003060     CONDUIT   1294.51     0  02:06      2.34    0.29    0.50
  YS02001580YS02001583 CONDUIT     82.63     0  01:55      0.57    0.32    1.00
  YS02001583YS02001586 CONDUIT    134.60     0  01:55      0.55    0.20    1.00
  YS02001586YS02001590 CONDUIT    318.10     0  02:00      1.24    0.56    1.00
  YS02001590YS02001593 CONDUIT    318.30     0  02:00      1.13    2.00    1.00
  YS02001593YS02001596 CONDUIT    318.13     0  02:00      1.60    0.50    1.00
  YS02001596YS02001600 CONDUIT    318.12     0  02:00      1.13    0.62    1.00
  YS02001600YS02001601 CONDUIT    317.96     0  02:01      1.12    0.55    1.00
  YS02001601YS02001602 CONDUIT    501.29     0  01:54      1.77    1.81    1.00
  YS02001602YS02001605 CONDUIT    501.26     0  01:54      1.77   10.61    1.00
  YS02001605YS02001607 CONDUIT    500.89     0  01:54      1.77    2.75    1.00
  YS02001607YS02001610 CONDUIT    502.08     0  01:54      0.64    0.48    1.00
  YS02001610YS02001613 CONDUIT    500.97     0  01:54      0.64    0.58    1.00
  YS02001613YS02001616 CONDUIT    503.77     0  01:54      0.65    0.43    1.00
  YS02001616YS02001619 CONDUIT    494.82     0  01:55      0.67    0.86    1.00
  YS02001619YS02001622 CONDUIT    910.12     0  01:57      1.18    1.34    1.00
  YS02001622YS02001625 CONDUIT    911.01     0  01:57      1.16    0.49    1.00
  YS02001625YS02001629 CONDUIT    911.39     0  01:57      1.16    0.43    1.00
  YS02001629YS02163301 CONDUIT    913.11     0  01:57      1.16    1.12    1.00
  YS02001633YS02163601 CONDUIT   1310.39     0  01:57      1.67    1.38    1.00
  YS02001641YS02001644 CONDUIT   1305.53     0  01:57      1.66    4.22    1.00
  YS02001644YS02001647 CONDUIT   1674.08     0  01:58      2.17    0.98    1.00
  YS02001647YS02001649 CONDUIT   1679.55     0  01:58      2.30    0.89    1.00
  YS02001649YS02001757 CONDUIT   1830.45     0  01:57      2.34    1.11    1.00
  YS02001652YS02001649 CONDUIT    739.44     0  02:05      0.94    0.37    1.00
  YS02001655YS02001652 CONDUIT    739.23     0  02:05      1.31    0.36    1.00
  YS02001658YS02001655 CONDUIT    738.77     0  02:05      1.84    0.31    1.00
  YS02001661YS02001658 CONDUIT    738.41     0  02:05      2.22    0.29    1.00
  YS02001664YS02001661 CONDUIT    882.20     0  02:04      2.12    0.28    0.74
  YS02001745YS02001748 CONDUIT    507.07     0  02:01      2.07    0.20    0.89
  YS02001748YS02001751 CONDUIT    459.84     0  02:05      1.65    0.23    1.00
  YS02001751YS02001754 CONDUIT    459.80     0  02:05      1.43    0.22    1.00
  YS02001754YS02001757 CONDUIT    460.36     0  02:05      0.59    0.19    1.00
  YS02001757CaochengTiaoxuchi CONDUIT   3014.28     0  02:02      3.84    1.30    1.00
  YS02001759YS02001757 CONDUIT   1208.22     0  02:02      1.54    0.86    1.00
  YS02001762YS02001759 CONDUIT    673.90     0  02:01      0.86    0.78    1.00
  YS02001765YS02001762 CONDUIT    673.12     0  02:01      0.86    0.63    1.00
  YS02001767YS02001765 CONDUIT    672.98     0  02:01      0.86    0.85    1.00
  YS02001770YS02001767 CONDUIT    672.31     0  02:01      0.86    2.66    1.00
  YS02001774YS02001770 CONDUIT    349.20     0  02:05      0.44    0.22    1.00
  YS02001779YS02001774 CONDUIT    349.96     0  02:05      0.45    0.18    1.00
  YS02001783YS02001784 CONDUIT   1160.99     0  02:05      2.31    1.60    1.00
  YS02001784YS02001785 CONDUIT   1161.57     0  02:05      2.31    2.70    1.00
  YS02001786YS02001788 CONDUIT   1161.99     0  02:05      2.48    2.24    0.89
  YS02001788YS02001790 CONDUIT   1173.52     0  02:03      2.72    0.86    0.84
  YS02001790YS02001791 CONDUIT   1281.97     0  02:02      3.43    1.39    0.75
  YS02001791YS02001793 CONDUIT   1350.78     0  02:01      6.75    0.58    0.82
  YS02001793JiankangQianchi CONDUIT   1710.07     0  02:00     24.23    0.14    0.97
  YS02001882YS02001884 CONDUIT     36.64     0  01:56      0.14    0.04    1.00
  YS02001884YS02001887 CONDUIT     76.29     0  01:56      0.10    0.10    1.00
  YS02001887YS02001890 CONDUIT    672.01     0  02:05      0.86    1.15    1.00
  YS02001890YS02001895 CONDUIT    516.94     0  02:08      0.66    0.24    1.00
  YS02001895YS02001898 CONDUIT    517.10     0  02:08      0.66    0.90    1.00
  YS02001898YS02001901 CONDUIT    517.09     0  02:08      0.66    0.33    1.00
  YS02001901YS02001904 CONDUIT    517.06     0  02:08      0.66    0.80    1.00
  YS02001904YS02001907 CONDUIT    517.00     0  02:08      0.66    0.18    1.00
  YS02001907YS02006553 CONDUIT    794.47     0  02:22      0.88    0.93    1.00
  YS02001910YS02001907 CONDUIT   1181.27     0  02:04      1.50    0.67    1.00
  YS02001915YS02001910 CONDUIT   1181.42     0  02:04      1.50    0.59    1.00
  YS02001918YS02001915 CONDUIT    455.35     0  02:01      0.58    0.25    1.00
  YS02001920YS02001918 CONDUIT    454.55     0  02:00      0.64    0.44    1.00
  YS02001923YS02001920 CONDUIT    449.95     0  02:00      0.69    0.20    1.00
  YS02001926YS02001923 CONDUIT    427.58     0  02:00      0.96    0.61    1.00
  YS02001929YS02001926 CONDUIT    423.92     0  02:00      1.10    0.20    1.00
  YS02006553YS02006556 CONDUIT    794.13     0  02:22      1.01    0.68    1.00
  YS02006556YS02006558 CONDUIT    794.84     0  02:22      1.01    0.63    1.00
  YS02006558YS02006561 CONDUIT   1160.78     0  02:04      4.11    2.57    1.00
  YS02006561YS02001783 CONDUIT   1160.89     0  02:04      2.31    0.60    1.00
  YS02163301YS02001633 CONDUIT    913.61     0  01:57      1.16    0.86    1.00
  YS02163601YS02164001 CONDUIT   1309.95     0  01:57      1.67    1.16    1.00
  YS02164001YS02001641 CONDUIT   1307.04     0  01:57      1.66    1.78    1.00
  YSB1154YSB6556       CONDUIT    368.47     0  02:05      0.96    0.66    1.00
  YSB1171HS02004479    CONDUIT    401.31     0  01:59      0.80    0.27    1.00
  YSB1174YSB1171       CONDUIT    315.54     0  02:05      0.82    0.48    1.00
  YSB6556YSB1171       CONDUIT    369.14     0  02:05      0.96    0.38    1.00
  CC-R1                PUMP       683.00     0  02:10              1.00
  CC-R2                PUMP       683.00     0  02:20              1.00
  CC-S1                PUMP       200.00     0  01:30              1.00
  CC-S2                PUMP       200.00     0  01:30              1.00
  JK-R1                PUMP      1000.00     0  00:00              1.00
  JK-R2                PUMP      1000.00     0  01:40              1.00
  JK-S                 PUMP       300.00     0  00:00              1.00
  XR-1                 PUMP        95.00     0  00:10              1.00
  XR-2                 PUMP        95.00     0  00:29              1.00
  XR-3                 PUMP         0.00     0  00:00              0.00
  XR-4                 PUMP         0.00     0  00:00              0.00
  
  
  ***************************
  Flow Classification Summary
  ***************************
  
  -------------------------------------------------------------------------------------
                      Adjusted    ---------- Fraction of Time in Flow Class ---------- 
                       /Actual         Up    Down  Sub   Sup   Up    Down  Norm  Inlet 
  Conduit               Length    Dry  Dry   Dry   Crit  Crit  Crit  Crit  Ltd   Ctrl  
  -------------------------------------------------------------------------------------
  1                       1.00   0.00  0.00  0.00  0.00  1.00  0.00  0.00  0.43  0.00
  HS02004478WS02006287    1.00   0.06  0.00  0.00  0.64  0.30  0.00  0.00  0.45  0.00
  HS02004479HS02004480    1.00   0.02  0.00  0.00  0.98  0.00  0.00  0.00  0.15  0.00
  HS02004480HS02004478    1.00   0.05  0.00  0.00  0.58  0.00  0.00  0.37  0.00  0.00
  HS02004770HS02004777    1.00   0.00  0.05  0.00  0.95  0.00  0.00  0.00  0.03  0.00
  HS02004777HS02004785    1.00   0.00  0.00  0.00  1.00  0.00  0.00  0.00  0.15  0.00
  HS02004785HS02004788    1.00   0.00  0.00  0.00  1.00  0.00  0.00  0.00  0.00  0.00
  HS02004788HS02004792    1.00   0.00  0.00  0.00  0.99  0.01  0.00  0.00  0.86  0.00
  HS02004792HS02004799    1.00   0.00  0.00  0.00  0.99  0.01  0.00  0.00  0.80  0.00
  HS02004799HS02004480    1.00   0.00  0.02  0.00  0.94  0.00  0.04  0.00  0.00  0.00
  HS02004802HS02004478    1.00   0.05  0.00  0.00  0.94  0.00  0.00  0.00  0.03  0.00
  HS02004807HS02004802    1.00   0.05  0.00  0.00  0.94  0.00  0.00  0.01  0.00  0.00
  HS02004817HS02004807    1.00   0.00  0.05  0.00  0.95  0.00  0.00  0.00  0.01  0.00
  HS02004817HS02004824    1.00   0.00  0.00  0.00  1.00  0.00  0.00  0.00  0.74  0.00
  HS02004824HS02004830    1.00   0.00  0.00  0.00  1.00  0.00  0.00  0.00  0.01  0.00
  HS02004830HS02004837    1.00   0.00  0.00  0.00  1.00  0.00  0.00  0.00  0.83  0.00
  HS02004837HS02004842    1.00   0.00  0.00  0.00  0.99  0.01  0.00  0.00  0.14  0.00
  HS02004842HS02004848    1.00   0.00  0.05  0.00  0.95  0.00  0.00  0.00  0.40  0.00
  HS02004848HS02004852    1.00   0.05  0.00  0.00  0.95  0.00  0.00  0.00  0.60  0.00
  HS02004852HS02004856    1.00   0.05  0.00  0.00  0.94  0.00  0.00  0.00  0.55  0.00
  HS02004856HS02004862    1.00   0.00  0.07  0.00  0.93  0.00  0.00  0.00  0.65  0.00
  HS02004862HS02004870    1.00   0.00  0.00  0.00  1.00  0.00  0.00  0.00  0.04  0.00
  HS02004870HS02004876    1.00   0.01  0.00  0.00  0.99  0.00  0.00  0.00  0.80  0.00
  HS02004876HS02004881    1.00   0.01  0.00  0.00  0.75  0.24  0.00  0.00  0.00  0.00
  HS02004881HS02006253    1.00   0.03  0.00  0.00  0.90  0.00  0.00  0.07  0.63  0.00
  HS02004901HS02004770    1.00   0.05  0.00  0.00  0.95  0.00  0.00  0.00  0.00  0.00
  WS02001211WS02001212    1.00   0.00  0.02  0.00  0.98  0.00  0.00  0.00  0.00  0.00
  WS02001212WS02001213    1.00   0.02  0.00  0.00  0.87  0.00  0.12  0.00  0.00  0.00
  WS02001213WS02003059    1.00   0.00  0.00  0.00  0.99  0.00  0.00  0.00  0.00  0.00
  WS02003059WS02003060    1.00   0.00  0.00  0.00  1.00  0.00  0.00  0.00  0.04  0.00
  WS02003060WS02003069    1.00   0.00  0.00  0.00  0.99  0.01  0.00  0.00  0.21  0.00
  WS02003066WSF200        1.00   0.12  0.00  0.00  0.00  0.88  0.00  0.00  0.33  0.00
  WS02003067WS02003066    1.00   0.12  0.00  0.00  0.88  0.00  0.00  0.00  0.00  0.00
  WS02003069WS02003072    1.00   0.00  0.00  0.00  1.00  0.00  0.00  0.00  0.25  0.00
  WS02003072WS02003073    1.00   0.00  0.00  0.00  0.00  0.00  0.00  1.00  0.00  0.00
  WS02004138WS02004139    1.00   0.01  0.00  0.00  0.98  0.00  0.00  0.00  0.97  0.00
  WS02004139WS02001211    1.00   0.00  0.01  0.00  0.99  0.00  0.00  0.00  0.01  0.00
  WS02004401WS02004402    1.00   0.02  0.00  0.00  0.98  0.00  0.00  0.00  0.04  0.00
  WS02004402WS02004403    1.00   0.02  0.00  0.00  0.98  0.00  0.00  0.00  0.00  0.00
  WS02004403WS02004404    1.00   0.00  0.03  0.00  0.97  0.00  0.00  0.00  0.04  0.00
  WS02004404WS02004405    1.00   0.00  0.00  0.00  1.00  0.00  0.00  0.00  0.00  0.00
  WS02004405WS02004406    1.00   0.00  0.00  0.00  1.00  0.00  0.00  0.00  0.04  0.00
  WS02004406WS02004407    1.00   0.00  0.09  0.00  0.91  0.00  0.00  0.00  0.00  0.00
  WS02004407WS02004409    1.00   0.09  0.00  0.00  0.89  0.02  0.00  0.00  0.55  0.00
  WS02004409WS02004410    1.00   0.09  0.00  0.00  0.91  0.00  0.00  0.00  0.00  0.00
  WS02004410WS02004411    1.00   0.09  0.00  0.00  0.91  0.00  0.00  0.00  0.00  0.00
  WS02004411WS02004412    1.00   0.09  0.00  0.00  0.91  0.00  0.00  0.00  0.00  0.00
  WS02004412WS02004413    1.00   0.09  0.00  0.00  0.90  0.01  0.00  0.00  0.00  0.00
  WS02004413WS02003067    1.00   0.10  0.02  0.00  0.00  0.00  0.88  0.00  0.00  0.00
  WS02006109WS02006110    1.00   0.00  0.01  0.00  0.99  0.00  0.00  0.00  0.00  0.00
  WS02006110WS02006113    1.00   0.01  0.00  0.00  0.99  0.00  0.00  0.00  0.00  0.00
  WS02006111WS02006112    1.00   0.01  0.00  0.00  0.98  0.00  0.00  0.00  0.66  0.00
  WS02006112WS02006115    1.00   0.01  0.01  0.00  0.97  0.00  0.00  0.00  0.00  0.00
  WS02006113WS02006111    1.00   0.01  0.00  0.00  0.36  0.63  0.00  0.00  0.13  0.00
  WS02006115WS02006116    1.00   0.02  0.00  0.00  0.95  0.00  0.00  0.03  0.01  0.00
  WS02006116WS02004401    1.00   0.02  0.00  0.00  0.98  0.00  0.00  0.00  0.01  0.00
  WS02006228WS02006109    1.00   0.00  0.00  0.00  1.00  0.00  0.00  0.00  0.00  0.00
  WS02006229WS02006228    1.00   0.00  0.00  0.00  0.99  0.00  0.00  0.01  0.00  0.00
  WS02006230WS02006229    1.00   0.00  0.00  0.00  0.99  0.00  0.00  0.01  0.02  0.00
  WS02006231WS02006230    1.00   0.00  0.00  0.00  0.92  0.00  0.07  0.00  0.00  0.00
  WS02006232WS02006231    1.00   0.00  0.00  0.00  0.99  0.00  0.00  0.00  0.00  0.00
  WS02006234WS02006232    1.00   0.00  0.00  0.00  1.00  0.00  0.00  0.00  0.13  0.00
  WS02006235WS02006234    1.00   0.00  0.00  0.00  0.94  0.00  0.06  0.00  0.00  0.00
  WS02006238WS02006235    1.00   0.00  0.00  0.00  1.00  0.00  0.00  0.00  0.00  0.00
  WS02006239WS02006238    1.00   0.00  0.00  0.00  1.00  0.00  0.00  0.00  0.07  0.00
  WS02006240WS02006239    1.00   0.00  0.00  0.00  0.92  0.00  0.00  0.08  0.01  0.00
  WS02006242WS02006240    1.00   0.00  0.00  0.00  0.98  0.00  0.01  0.00  0.00  0.00
  WS02006243WS02006242    1.00   0.01  0.00  0.00  0.99  0.00  0.00  0.00  0.21  0.00
  WS02006245WS02006243    1.00   0.01  0.01  0.00  0.92  0.00  0.00  0.07  0.00  0.00
  WS02006247WS02006245    1.00   0.01  0.00  0.00  0.95  0.00  0.00  0.04  0.00  0.00
  WS02006248WS02006247    1.00   0.01  0.00  0.00  0.97  0.00  0.00  0.02  0.04  0.00
  WS02006249WS02006248    1.00   0.00  0.01  0.00  0.91  0.00  0.08  0.00  0.00  0.00
  WS02006251WS02006249    1.00   0.00  0.00  0.00  1.00  0.00  0.00  0.00  0.21  0.00
  WS02006252WS02006251    1.00   0.10  0.00  0.00  0.51  0.00  0.39  0.00  0.00  0.00
  WS02006253WS02006251    1.00   0.02  0.02  0.00  0.95  0.00  0.01  0.00  0.00  0.00
  WS02006256WS02006235    1.00   0.00  0.00  0.00  1.00  0.00  0.00  0.00  0.00  0.00
  WS02006280WS02006229    1.00   0.06  0.00  0.00  0.32  0.04  0.00  0.58  0.01  0.00
  WS02006284WS02006280    1.00   0.06  0.00  0.00  0.22  0.02  0.00  0.70  0.00  0.00
  WS02006287WS02006284    1.00   0.04  0.02  0.00  0.53  0.40  0.00  0.00  0.54  0.00
  WSF200WS02003060        1.00   0.00  0.12  0.00  0.01  0.87  0.00  0.00  0.00  0.00
  YS02001580YS02001583    1.00   0.18  0.42  0.00  0.40  0.00  0.00  0.00  0.52  0.00
  YS02001583YS02001586    1.00   0.14  0.40  0.00  0.46  0.00  0.00  0.00  0.53  0.00
  YS02001586YS02001590    1.00   0.05  0.00  0.00  0.66  0.03  0.00  0.26  0.46  0.00
  YS02001590YS02001593    1.00   0.05  0.00  0.00  0.28  0.00  0.66  0.00  0.00  0.00
  YS02001593YS02001596    1.00   0.05  0.00  0.00  0.34  0.06  0.00  0.55  0.08  0.00
  YS02001596YS02001600    1.00   0.06  0.00  0.00  0.60  0.01  0.00  0.34  0.14  0.00
  YS02001600YS02001601    1.00   0.05  0.00  0.00  0.94  0.00  0.00  0.00  0.25  0.00
  YS02001601YS02001602    1.00   0.05  0.00  0.00  0.95  0.00  0.00  0.00  0.00  0.00
  YS02001602YS02001605    1.00   0.05  0.00  0.00  0.94  0.00  0.00  0.00  0.00  0.00
  YS02001605YS02001607    1.00   0.06  0.00  0.00  0.94  0.00  0.00  0.00  0.00  0.00
  YS02001607YS02001610    1.00   0.05  0.00  0.00  0.94  0.00  0.00  0.00  0.02  0.00
  YS02001610YS02001613    1.00   0.05  0.00  0.00  0.95  0.00  0.00  0.00  0.01  0.00
  YS02001613YS02001616    1.00   0.05  0.00  0.00  0.95  0.00  0.00  0.00  0.01  0.00
  YS02001616YS02001619    1.00   0.05  0.00  0.00  0.95  0.00  0.00  0.00  0.00  0.00
  YS02001619YS02001622    1.00   0.05  0.00  0.00  0.95  0.00  0.00  0.00  0.03  0.00
  YS02001622YS02001625    1.00   0.05  0.00  0.00  0.95  0.00  0.00  0.00  0.05  0.00
  YS02001625YS02001629    1.00   0.05  0.02  0.00  0.63  0.00  0.29  0.00  0.00  0.00
  YS02001629YS02163301    1.00   0.06  0.00  0.00  0.94  0.00  0.00  0.00  0.00  0.00
  YS02001633YS02163601    1.00   0.00  0.01  0.00  0.99  0.00  0.00  0.00  0.19  0.00
  YS02001641YS02001644    1.00   0.00  0.01  0.00  0.99  0.00  0.00  0.00  0.00  0.00
  YS02001644YS02001647    1.00   0.00  0.07  0.00  0.93  0.00  0.00  0.00  0.00  0.00
  YS02001647YS02001649    1.00   0.00  0.07  0.00  0.89  0.04  0.00  0.00  0.02  0.00
  YS02001649YS02001757    1.00   0.00  0.00  0.00  0.93  0.07  0.00  0.00  0.24  0.00
  YS02001652YS02001649    1.00   0.00  0.00  0.00  0.98  0.02  0.00  0.00  0.21  0.00
  YS02001655YS02001652    1.00   0.00  0.00  0.00  0.85  0.01  0.00  0.13  0.10  0.00
  YS02001658YS02001655    1.00   0.00  0.06  0.00  0.81  0.13  0.00  0.00  0.25  0.00
  YS02001661YS02001658    1.00   0.06  0.00  0.00  0.81  0.14  0.00  0.00  0.37  0.00
  YS02001664YS02001661    1.00   0.05  0.00  0.00  0.85  0.09  0.00  0.00  0.77  0.00
  YS02001745YS02001748    1.00   0.00  0.00  0.00  0.53  0.00  0.00  0.47  0.18  0.00
  YS02001748YS02001751    1.00   0.00  0.00  0.00  0.87  0.13  0.00  0.00  0.34  0.00
  YS02001751YS02001754    1.00   0.00  0.00  0.00  0.82  0.01  0.00  0.17  0.10  0.00
  YS02001754YS02001757    1.00   0.00  0.00  0.00  1.00  0.00  0.00  0.00  0.30  0.00
  YS02001757CaochengTiaoxuchi    1.00   0.00  0.00  0.00  1.00  0.00  0.00  0.00  0.12  0.00
  YS02001759YS02001757    1.00   0.00  0.00  0.00  1.00  0.00  0.00  0.00  0.20  0.00
  YS02001762YS02001759    1.00   0.00  0.00  0.00  1.00  0.00  0.00  0.00  0.04  0.00
  YS02001765YS02001762    1.00   0.00  0.00  0.00  1.00  0.00  0.00  0.00  0.19  0.00
  YS02001767YS02001765    1.00   0.00  0.00  0.00  1.00  0.00  0.00  0.00  0.00  0.00
  YS02001770YS02001767    1.00   0.00  0.00  0.00  1.00  0.00  0.00  0.00  0.00  0.00
  YS02001774YS02001770    1.00   0.00  0.05  0.00  0.95  0.00  0.00  0.00  0.04  0.00
  YS02001779YS02001774    1.00   0.00  0.00  0.00  1.00  0.00  0.00  0.00  0.24  0.00
  YS02001783YS02001784    1.00   0.00  0.08  0.00  0.92  0.00  0.00  0.00  0.40  0.00
  YS02001784YS02001785    1.00   0.00  0.00  0.00  1.00  0.00  0.00  0.00  0.22  0.00
  YS02001786YS02001788    1.00   0.00  0.00  0.00  0.62  0.38  0.00  0.00  0.00  0.00
  YS02001788YS02001790    1.00   0.00  0.00  0.00  0.14  0.86  0.00  0.00  0.73  0.00
  YS02001790YS02001791    1.00   0.00  0.00  0.00  0.01  0.99  0.00  0.00  0.21  0.00
  YS02001791YS02001793    1.00   0.00  0.00  0.00  0.00  1.00  0.00  0.00  0.01  0.00
  YS02001793JiankangQianchi    1.00   0.00  0.00  0.00  0.12  0.88  0.00  0.00  0.15  0.00
  YS02001882YS02001884    1.00   0.06  0.00  0.00  0.94  0.00  0.00  0.00  0.00  0.00
  YS02001884YS02001887    1.00   0.03  0.02  0.00  0.95  0.00  0.00  0.00  0.00  0.00
  YS02001887YS02001890    1.00   0.00  0.00  0.00  0.98  0.00  0.02  0.00  0.00  0.00
  YS02001890YS02001895    1.00   0.00  0.06  0.00  0.94  0.00  0.00  0.00  0.00  0.00
  YS02001895YS02001898    1.00   0.06  0.00  0.00  0.92  0.00  0.02  0.00  0.00  0.00
  YS02001898YS02001901    1.00   0.07  0.00  0.00  0.93  0.00  0.00  0.00  0.01  0.00
  YS02001901YS02001904    1.00   0.07  0.00  0.00  0.93  0.00  0.00  0.00  0.00  0.00
  YS02001904YS02001907    1.00   0.00  0.06  0.00  0.93  0.00  0.00  0.00  0.00  0.00
  YS02001907YS02006553    1.00   0.00  0.01  0.00  0.98  0.00  0.00  0.00  0.00  0.00
  YS02001910YS02001907    1.00   0.00  0.00  0.00  0.98  0.00  0.00  0.02  0.16  0.00
  YS02001915YS02001910    1.00   0.00  0.00  0.00  0.99  0.01  0.00  0.00  0.21  0.00
  YS02001918YS02001915    1.00   0.00  0.01  0.00  0.99  0.01  0.00  0.00  0.65  0.00
  YS02001920YS02001918    1.00   0.00  0.01  0.00  0.99  0.00  0.00  0.00  0.00  0.00
  YS02001923YS02001920    1.00   0.00  0.00  0.00  1.00  0.00  0.00  0.00  0.89  0.00
  YS02001926YS02001923    1.00   0.00  0.03  0.00  0.12  0.00  0.85  0.00  0.00  0.00
  YS02001929YS02001926    1.00   0.00  0.05  0.00  0.95  0.00  0.00  0.00  0.76  0.00
  YS02006553YS02006556    1.00   0.01  0.00  0.00  0.99  0.00  0.00  0.00  0.04  0.00
  YS02006556YS02006558    1.00   0.00  0.00  0.00  1.00  0.00  0.00  0.00  0.00  0.00
  YS02006558YS02006561    1.00   0.08  0.00  0.00  0.11  0.82  0.00  0.00  0.24  0.00
  YS02006561YS02001783    1.00   0.08  0.00  0.00  0.18  0.74  0.00  0.00  0.57  0.00
  YS02163301YS02001633    1.00   0.00  0.06  0.00  0.94  0.00  0.00  0.00  0.00  0.00
  YS02163601YS02164001    1.00   0.00  0.04  0.00  0.96  0.00  0.00  0.00  0.00  0.00
  YS02164001YS02001641    1.00   0.01  0.03  0.00  0.96  0.00  0.00  0.00  0.07  0.00
  YSB1154YSB6556          1.00   0.05  0.00  0.00  0.95  0.00  0.00  0.00  0.02  0.00
  YSB1171HS02004479       1.00   0.02  0.00  0.00  0.97  0.00  0.00  0.00  0.13  0.00
  YSB1174YSB1171          1.00   0.03  0.02  0.00  0.96  0.00  0.00  0.00  0.00  0.00
  YSB6556YSB1171          1.00   0.02  0.03  0.00  0.95  0.00  0.00  0.00  0.00  0.00
  
  
  *************************
  Conduit Surcharge Summary
  *************************
  
  ----------------------------------------------------------------------------
                                                           Hours        Hours 
                         --------- Hours Full --------   Above Full   Capacity
  Conduit                Both Ends  Upstream  Dnstream   Normal Flow   Limited
  ----------------------------------------------------------------------------
  HS02004478WS02006287        0.51      0.51      0.70      0.01         0.01
  HS02004479HS02004480        0.70      0.70      0.72      0.01         0.01
  HS02004480HS02004478        0.62      0.69      0.62      1.75         0.62
  HS02004770HS02004777        0.59      0.59      0.59      0.11         0.07
  HS02004777HS02004785        0.54      0.54      0.59      0.01         0.01
  HS02004785HS02004788        0.53      0.54      0.53      1.52         0.50
  HS02004788HS02004792        0.53      0.53      0.66      0.01         0.01
  HS02004792HS02004799        0.66      0.66      0.79      0.01         0.01
  HS02004799HS02004480        0.69      0.69      0.79      0.91         0.01
  HS02004802HS02004478        0.64      0.64      0.72      0.03         0.01
  HS02004807HS02004802        0.69      0.69      0.71      0.26         0.27
  HS02004817HS02004807        0.69      0.69      1.36      0.01         0.01
  HS02004817HS02004824        0.53      0.53      1.36      0.01         0.01
  HS02004824HS02004830        0.50      0.50      0.53      0.01         0.01
  HS02004830HS02004837        0.46      0.46      0.50      0.01         0.01
  HS02004837HS02004842        0.46      0.46      0.60      0.01         0.01
  HS02004842HS02004848        0.42      0.42      0.60      0.01         0.01
  HS02004848HS02004852        0.42      0.42      0.45      0.02         0.01
  HS02004852HS02004856        0.45      0.45      0.46      0.01         0.01
  HS02004856HS02004862        0.43      0.43      0.47      0.01         0.01
  HS02004862HS02004870        0.47      0.47      0.48      0.15         0.15
  HS02004870HS02004876        0.48      0.48      0.57      0.01         0.01
  HS02004876HS02004881        0.52      0.57      0.52      1.55         0.52
  HS02004881HS02006253        0.52      0.52      2.40      0.01         0.01
  HS02004901HS02004770        0.59      0.59      0.60      0.01         0.01
  WS02003072WS02003073        0.01      0.01      0.01      4.31         0.01
  WS02004401WS02004402        1.65      1.65      1.69      1.54         1.54
  WS02004402WS02004403        1.69      1.69      1.69      1.66         1.64
  WS02004403WS02004404        1.69      1.69      1.86      0.01         0.02
  WS02004404WS02004405        1.82      1.86      1.82      4.51         1.82
  WS02004405WS02004406        1.78      1.82      1.78      2.23         1.78
  WS02004406WS02004407        0.01      0.01      1.78      0.01         0.01
  WS02004407WS02004409        0.01      0.01      1.12      0.01         0.01
  WS02004409WS02004410        1.07      1.12      1.07      1.57         1.07
  WS02004410WS02004411        0.95      1.07      0.95      1.61         0.95
  WS02004411WS02004412        0.83      0.95      0.83      1.64         0.83
  WS02004412WS02004413        0.83      0.83      1.46      0.01         0.01
  WS02004413WS02003067        0.01      0.01      1.46      0.01         0.01
  WS02006109WS02006110        2.14      2.14      4.45      2.15         0.01
  WS02006110WS02006113        1.45      1.45      4.44      0.32         0.01
  WS02006111WS02006112        1.43      1.43      4.44      0.01         0.01
  WS02006112WS02006115        1.57      1.57      2.35      0.01         0.01
  WS02006113WS02006111        1.44      1.45      1.44      1.55         1.44
  WS02006115WS02006116        1.57      1.57      1.58      1.59         1.56
  WS02006116WS02004401        1.65      1.65      1.65      1.63         1.60
  WS02006228WS02006109        4.44      4.45      4.44      4.54         4.44
  WS02006229WS02006228        4.44      4.45      4.44      4.50         4.44
  WS02006230WS02006229        4.47      4.47      4.47      4.49         3.33
  WS02006231WS02006230        1.93      1.93      2.22      4.33         1.10
  WS02006232WS02006231        2.18      2.18      4.42      0.01         0.16
  WS02006234WS02006232        4.42      4.42      4.42      0.01         0.01
  WS02006235WS02006234        3.97      3.97      4.42      4.28         1.08
  WS02006238WS02006235        4.42      4.42      4.42      0.01         0.39
  WS02006239WS02006238        4.42      4.42      4.42      3.73         2.83
  WS02006240WS02006239        4.42      4.42      4.42      3.73         2.83
  WS02006242WS02006240        4.42      4.42      4.43      3.88         0.96
  WS02006243WS02006242        4.42      4.42      4.42      0.01         0.01
  WS02006245WS02006243        4.42      4.42      4.42      2.85         2.81
  WS02006247WS02006245        4.42      4.42      4.42      4.18         3.12
  WS02006248WS02006247        4.42      4.42      4.42      0.02         0.01
  WS02006249WS02006248        4.42      4.42      4.43      3.02         0.01
  WS02006251WS02006249        4.43      4.45      4.43      4.47         4.42
  WS02006252WS02006251        4.49      4.49      4.49      3.97         0.01
  WS02006253WS02006251        4.44      4.44      4.46      0.84         0.01
  WS02006256WS02006235        4.48      4.48      4.86      0.36         0.01
  WS02006280WS02006229        0.83      0.83      1.00      0.01         0.01
  WS02006284WS02006280        0.73      0.73      0.82      0.01         0.01
  WS02006287WS02006284        0.61      0.61      0.74      0.30         0.31
  YS02001580YS02001583        0.64      0.65      0.70      0.01         0.01
  YS02001583YS02001586        0.65      0.65      0.87      0.01         0.01
  YS02001586YS02001590        0.88      0.88      0.98      0.01         0.01
  YS02001590YS02001593        0.99      0.99      1.01      0.97         0.01
  YS02001593YS02001596        1.00      1.00      1.17      0.01         0.01
  YS02001596YS02001600        1.24      1.24      1.38      0.01         0.01
  YS02001600YS02001601        1.53      1.53      2.36      0.01         0.01
  YS02001601YS02001602        2.20      2.20      2.43      1.21         0.01
  YS02001602YS02001605        2.17      2.17      2.20      2.33         0.01
  YS02001605YS02001607        2.13      2.17      2.28      1.46         1.35
  YS02001607YS02001610        1.13      1.13      1.17      0.01         0.01
  YS02001610YS02001613        1.13      1.13      1.17      0.01         0.01
  YS02001613YS02001616        1.08      1.08      1.13      0.01         0.01
  YS02001616YS02001619        1.06      1.06      1.08      0.01         0.01
  YS02001619YS02001622        1.06      1.06      1.07      0.83         0.67
  YS02001622YS02001625        1.07      1.07      1.69      0.01         0.01
  YS02001625YS02001629        1.01      1.01      1.69      0.01         0.01
  YS02001629YS02163301        1.85      1.85      1.94      0.06         0.06
  YS02001633YS02163601        2.07      2.07      2.29      0.09         0.10
  YS02001641YS02001644        2.13      2.14      2.14      1.50         1.18
  YS02001644YS02001647        1.56      1.56      2.14      0.01         0.01
  YS02001647YS02001649        1.56      1.56      2.20      0.01         0.01
  YS02001649YS02001757        2.20      2.20      2.56      0.05         0.03
  YS02001652YS02001649        1.60      1.60      2.20      0.01         0.01
  YS02001655YS02001652        0.85      0.85      1.49      0.01         0.01
  YS02001658YS02001655        0.42      0.42      0.85      0.01         0.01
  YS02001661YS02001658        0.01      0.01      0.42      0.01         0.01
  YS02001664YS02001661        0.01      0.01      0.07      0.01         0.01
  YS02001745YS02001748        0.01      0.01      0.32      0.01         0.01
  YS02001748YS02001751        0.42      0.42      0.69      0.01         0.01
  YS02001751YS02001754        0.69      0.69      1.34      0.01         0.01
  YS02001754YS02001757        1.54      1.54      2.56      0.01         0.01
  YS02001757CaochengTiaoxuchi        2.56      2.56      4.15      0.24         0.24
  YS02001759YS02001757        2.27      2.27      2.56      0.01         0.01
  YS02001762YS02001759        2.16      2.16      2.27      0.01         0.02
  YS02001765YS02001762        2.02      2.02      2.16      0.01         0.01
  YS02001767YS02001765        1.91      1.91      2.02      0.01         0.02
  YS02001770YS02001767        1.89      1.89      1.91      0.55         0.47
  YS02001774YS02001770        1.81      1.81      2.10      0.01         0.01
  YS02001779YS02001774        1.13      1.13      2.10      0.01         0.01
  YS02001783YS02001784        0.54      0.57      0.54      0.74         0.54
  YS02001784YS02001785        0.42      0.54      0.42      1.01         0.42
  YS02001786YS02001788        0.01      0.42      0.01      0.85         0.01
  YS02001790YS02001791        0.01      0.01      0.01      0.52         0.01
  YS02001791YS02001793        0.01      0.01      0.01      0.01         0.01
  YS02001793JiankangQianchi        0.01      0.01      0.44      0.01         0.01
  YS02001882YS02001884        0.51      0.51      0.52      0.01         0.01
  YS02001884YS02001887        0.54      0.54      0.56      0.01         0.01
  YS02001887YS02001890        0.57      0.57      0.58      0.07         0.01
  YS02001890YS02001895        0.50      0.50      0.60      0.01         0.01
  YS02001895YS02001898        0.49      0.49      0.50      0.01         0.01
  YS02001898YS02001901        0.50      0.50      0.54      0.01         0.01
  YS02001901YS02001904        0.53      0.53      0.54      0.01         0.01
  YS02001904YS02001907        0.53      0.53      0.84      0.01         0.01
  YS02001907YS02006553        1.02      1.02      1.10      0.01         0.01
  YS02001910YS02001907        0.60      0.60      0.81      0.01         0.01
  YS02001915YS02001910        0.51      0.51      0.60      0.01         0.01
  YS02001918YS02001915        0.41      0.41      0.51      0.01         0.01
  YS02001920YS02001918        0.41      0.41      0.42      0.01         0.01
  YS02001923YS02001920        0.36      0.36      0.42      0.01         0.01
  YS02001926YS02001923        0.02      0.02      0.04      0.01         0.01
  YS02001929YS02001926        0.01      0.01      0.04      0.01         0.01
  YS02006553YS02006556        0.71      0.71      0.84      0.01         0.01
  YS02006556YS02006558        0.77      0.77      0.86      0.01         0.01
  YS02006558YS02006561        0.45      0.69      0.45      0.95         0.45
  YS02006561YS02001783        0.38      0.38      0.57      0.01         0.01
  YS02163301YS02001633        1.94      1.94      2.13      0.01         0.01
  YS02163601YS02164001        2.08      2.08      2.29      0.07         0.01
  YS02164001YS02001641        2.08      2.08      2.14      0.48         0.44
  YSB1154YSB6556              0.76      0.76      0.94      0.01         0.01
  YSB1171HS02004479           0.65      0.65      0.95      0.01         0.01
  YSB1174YSB1171              0.84      0.84      1.24      0.01         0.01
  YSB6556YSB1171              0.76      0.76      1.43      0.01         0.01
  
  
  ***************
  Pumping Summary
  ***************
  
  ---------------------------------------------------------------------------------------------------------
                                                  Min       Avg       Max     Total     Power    % Time Off
                        Percent   Number of      Flow      Flow      Flow    Volume     Usage    Pump Curve
  Pump                 Utilized   Start-Ups       LPS       LPS       LPS  10^6 ltr     Kw-hr    Low   High
  ---------------------------------------------------------------------------------------------------------
  CC-R1                   13.90           1      0.00    683.00    683.00     2.051     42.60    0.0   93.3
  CC-R2                    5.56           1      0.00    683.00    683.00     0.821     17.12    0.0  100.0
  CC-S1                   72.10           2      0.00    200.00    200.00     3.115     14.88    0.0   37.4
  CC-S2                   69.32           3      0.00    200.00    200.00     2.994     14.26    0.0   34.9
  JK-R1                   86.10           5      0.00    248.82   1000.00     3.160     10.97    0.0    0.0
  JK-R2                   27.82           6      0.00    476.15   1000.00     1.803      6.27    0.0    0.0
  JK-S                    30.62           6      0.00    218.81    300.00     0.916     18.90    0.0    0.0
  XR-1                    97.20           1      0.00     95.00     95.00     1.995      8.82    0.0    0.0
  XR-2                    91.96           1      0.00     95.00     95.00     1.887      7.99    0.0    0.0
  XR-3                     0.00           0      0.00      0.00      0.00     0.000      0.00    0.0    0.0
  XR-4                     0.00           0      0.00      0.00      0.00     0.000      0.00    0.0    0.0
  

  Analysis begun on:  Sat Aug 27 11:17:27 2022
  Analysis ended on:  Sat Aug 27 11:17:31 2022
  Total elapsed time: 00:00:04