
  OWA STORM WATER MANAGEMENT MODEL - VERSION v5.1.14 (OWA 2022-07-31)
  --------------------------------------------------------------

  WARNING 04: minimum elevation drop used for Conduit WS02004404WS02004405
  WARNING 03: negative offset ignored for Link YS02001904YS02001907
  
  *********************************************************
  NOTE: The summary statistics displayed in this report are
  based on results found at every computational time step,  
  not just on results from each reporting time step.
  *********************************************************
  
  ****************
  Analysis Options
  ****************
  Flow Units ............... LPS
  Process Models:
    Rainfall/Runoff ........ YES
    RDII ................... NO
    Snowmelt ............... NO
    Groundwater ............ NO
    Flow Routing ........... YES
    Ponding Allowed ........ NO
    Water Quality .......... NO
  Infiltration Method ...... HORTON
  Flow Routing Method ...... DYNWAVE
  Surcharge Method ......... EXTRAN
  Starting Date ............ 01/01/2000 00:00:00
  Ending Date .............. 01/01/2000 06:00:00
  Antecedent Dry Days ...... 8.0
  Report Time Step ......... 00:01:00
  Wet Time Step ............ 00:01:00
  Dry Time Step ............ 00:01:00
  Routing Time Step ........ 30.00 sec
  Variable Time Step ....... YES
  Maximum Trials ........... 8
  Number of Threads ........ 4
  Head Tolerance ........... 0.001500 m
  
  
  **************************        Volume         Depth
  Runoff Quantity Continuity     hectare-m            mm
  **************************     ---------       -------
  Total Precipitation ......         2.166        35.756
  Evaporation Loss .........         0.000         0.000
  Infiltration Loss ........         0.216         3.558
  Surface Runoff ...........         1.887        31.143
  Final Storage ............         0.064         1.062
  Continuity Error (%) .....        -0.020
  
  
  **************************        Volume        Volume
  Flow Routing Continuity        hectare-m      10^6 ltr
  **************************     ---------     ---------
  Dry Weather Inflow .......         0.472         4.722
  Wet Weather Inflow .......         1.886        18.863
  Groundwater Inflow .......         0.000         0.000
  RDII Inflow ..............         0.000         0.000
  External Inflow ..........         0.078         0.784
  External Outflow .........         1.778        17.785
  Flooding Loss ............         0.557         5.566
  Evaporation Loss .........         0.000         0.000
  Exfiltration Loss ........         0.000         0.000
  Initial Stored Volume ....         0.303         3.031
  Final Stored Volume ......         0.478         4.777
  Continuity Error (%) .....        -2.655
  
  
  *************************
  Highest Continuity Errors
  *************************
  Node JK-storage (-22.84%)
  Node YS02001583 (-5.51%)
  Node YS02001884 (5.48%)
  Node HS02004842 (1.93%)
  Node HS02004817 (1.87%)
  
  
  ***************************
  Time-Step Critical Elements
  ***************************
  Link WS02006235WS02006234 (25.42%)
  Link WS02006280WS02006229 (20.58%)
  Link WS02004404WS02004405 (12.47%)
  Link WS02003066WSF200 (10.54%)
  Link YS02001793JiankangQianchi (8.21%)
  
  
  ********************************
  Highest Flow Instability Indexes
  ********************************
  Link WS02006111WS02006112 (48)
  Link WS02006113WS02006111 (46)
  Link WS02006110WS02006113 (36)
  Link WS02006238WS02006235 (28)
  Link WS02006252WS02006251 (27)
  
  
  *************************
  Routing Time Step Summary
  *************************
  Minimum Time Step           :     0.50 sec
  Average Time Step           :     2.11 sec
  Maximum Time Step           :     8.46 sec
  Percent in Steady State     :     0.00
  Average Iterations per Step :     3.58
  Percent Not Converging      :    17.72
  
  
  ***************************
  Subcatchment Runoff Summary
  ***************************
  
  ------------------------------------------------------------------------------------------------------------------------------
                            Total      Total      Total      Total     Imperv       Perv      Total       Total     Peak  Runoff
                           Precip      Runon       Evap      Infil     Runoff     Runoff     Runoff      Runoff   Runoff   Coeff
  Subcatchment                 mm         mm         mm         mm         mm         mm         mm    10^6 ltr      LPS
  ------------------------------------------------------------------------------------------------------------------------------
  sub0                      35.76       0.00       0.00       0.91      31.99       1.59      33.58        0.03    17.56   0.939
  sub1                      35.76       0.00       0.00       1.54      30.52       2.39      32.91        0.22   127.62   0.921
  sub10                     35.76       0.00       0.00       1.09      31.56       1.77      33.34        0.37   217.98   0.932
  sub11                     35.76       0.00       0.00       1.07      31.60       1.79      33.39        0.39   238.76   0.934
  sub12                     35.76       0.00       0.00       1.74      29.91       2.91      32.82        0.29   185.13   0.918
  sub14                     35.76       0.00       0.00       1.22      31.24       2.00      33.24        0.32   191.65   0.930
  sub15                     35.76       0.00       0.00       4.77      24.02       5.96      29.98        0.52   286.95   0.838
  sub16                     35.76       0.00       0.00       4.94      23.03       6.87      29.89        0.31   188.77   0.836
  sub17                     35.76       0.00       0.00       4.81      23.37       6.63      30.00        0.26   154.01   0.839
  sub2                      35.76       0.00       0.00       6.74      21.57       6.49      28.06        0.26   125.37   0.785
  sub22                     35.76       0.00       0.00       7.21      19.58       8.17      27.74        1.75   931.15   0.776
  sub23                     35.76       0.00       0.00       5.89      21.64       7.34      28.98        1.38   777.36   0.810
  sub3                      35.76       0.00       0.00       7.24      21.50       5.99      27.49        0.62   267.99   0.769
  sub4                      35.76       0.00       0.00       1.72      30.23       2.22      32.45        0.68   300.65   0.908
  sub5                      35.76       0.00       0.00       0.95      31.89       1.56      33.45        0.38   221.25   0.935
  sub60                     35.76       0.00       0.00       1.64      30.23       2.65      32.88        0.43   268.77   0.920
  sub61                     35.76       0.00       0.00       2.37      28.52       3.71      32.23        0.59   369.47   0.901
  sub62                     35.76       0.00       0.00       1.09      31.55       1.77      33.32        0.91   535.35   0.932
  sub63                     35.76       0.00       0.00       4.38      24.39       5.99      30.38        0.69   408.17   0.850
  sub64                     35.76       0.00       0.00       2.21      29.12       3.15      32.27        0.78   431.53   0.903
  sub65                     35.76       0.00       0.00       1.92      29.77       2.73      32.51        0.89   483.15   0.909
  sub66                     35.76       0.00       0.00       5.35      24.21       5.02      29.23        1.36   604.91   0.817
  sub67                     35.76       0.00       0.00       1.06      31.63       1.81      33.43        0.62   396.11   0.935
  sub68                     35.76       0.00       0.00       1.97      29.52       3.04      32.56        0.90   541.13   0.911
  sub69                     35.76       0.00       0.00       1.70      30.20       3.66      33.86        1.25   651.21   0.947
  sub7                      35.76       0.00       0.00       1.20      31.26       2.01      33.28        0.11    70.07   0.931
  sub70                     35.76       0.00       0.00       5.61      23.32       6.55      29.86        0.86   343.30   0.835
  sub71                     35.76       0.00       0.00       1.12      31.48       1.74      33.22        0.87   472.71   0.929
  sub72                     35.76       0.00       0.00       1.00      31.72       1.51      33.23        0.46   226.29   0.929
  sub8                      35.76       0.00       0.00       1.22      31.25       2.00      33.25        0.21   129.93   0.930
  sub9                      35.76       0.00       0.00       1.22      31.24       2.00      33.24        0.16    97.28   0.930
  
  
  ******************
  Node Depth Summary
  ******************
  
  ---------------------------------------------------------------------------------
                                 Average  Maximum  Maximum  Time of Max    Reported
                                   Depth    Depth      HGL   Occurrence   Max Depth
  Node                 Type       Meters   Meters   Meters  days hr:min      Meters
  ---------------------------------------------------------------------------------
  HS02004478           JUNCTION     0.20     1.56    10.79     0  02:03        1.43
  HS02004479           JUNCTION     0.28     1.70    10.90     0  02:03        1.63
  HS02004480           JUNCTION     0.25     1.67    10.91     0  02:03        1.59
  HS02004770           JUNCTION     0.26     1.42    11.25     0  02:00        1.42
  HS02004777           JUNCTION     0.28     1.48    11.28     0  02:00        1.44
  HS02004785           JUNCTION     0.17     1.49    11.39     0  02:00        1.44
  HS02004788           JUNCTION     0.14     1.42    11.32     0  01:59        1.42
  HS02004792           JUNCTION     0.19     1.60    11.12     0  01:58        1.60
  HS02004799           JUNCTION     0.31     1.76    10.97     0  02:03        1.76
  HS02004802           JUNCTION     0.30     1.76    10.89     0  02:03        1.55
  HS02004807           JUNCTION     0.27     1.88    11.05     0  02:03        1.52
  HS02004817           JUNCTION     0.58     2.38    11.22     0  02:03        1.86
  HS02004824           JUNCTION     0.13     1.96    11.37     0  02:03        1.31
  HS02004830           JUNCTION     0.14     1.98    11.45     0  02:03        1.24
  HS02004837           JUNCTION     0.11     1.93    11.51     0  02:03        1.14
  HS02004842           JUNCTION     0.41     2.22    11.49     0  02:03        1.45
  HS02004848           JUNCTION     0.08     1.93    11.54     0  02:03        1.12
  HS02004852           JUNCTION     0.09     1.94    11.45     0  02:03        1.18
  HS02004856           JUNCTION     0.15     1.95    11.37     0  02:03        1.24
  HS02004862           JUNCTION     0.10     1.88    11.26     0  02:03        1.23
  HS02004870           JUNCTION     0.09     1.81    11.10     0  02:03        1.26
  HS02004876           JUNCTION     0.14     1.86    10.89     0  02:03        1.41
  HS02004881           JUNCTION     0.08     1.61    10.64     0  02:03        1.28
  HS02004901           JUNCTION     0.27     1.42    11.24     0  02:00        1.42
  WS02001211           JUNCTION     0.65     0.80     5.64     0  02:03        0.80
  WS02001212           JUNCTION     0.39     0.56     5.63     0  02:06        0.56
  WS02001213           JUNCTION     0.64     0.87     5.63     0  02:04        0.87
  WS02003059           JUNCTION     0.71     0.93     5.62     0  02:04        0.93
  WS02003060           JUNCTION     0.44     0.67     5.61     0  02:06        0.67
  WS02003066           JUNCTION     0.27     0.44     6.00     0  02:05        0.44
  WS02003067           JUNCTION     0.62     0.88     6.20     0  02:05        0.88
  WS02003069           JUNCTION     0.50     0.76     5.35     0  02:07        0.76
  WS02003072           JUNCTION     0.56     0.80     5.17     0  02:06        0.80
  WS02003073           JUNCTION     0.34     0.50     4.57     0  02:07        0.50
  WS02004138           JUNCTION     0.13     0.14     7.39     0  00:29        0.14
  WS02004139           JUNCTION     0.59     0.73     5.64     0  02:05        0.73
  WS02004401           JUNCTION     0.88     1.79     7.79     0  01:54        1.72
  WS02004402           JUNCTION     0.89     1.69     7.65     0  01:54        1.68
  WS02004403           JUNCTION     0.90     1.72     7.65     0  01:54        1.61
  WS02004404           JUNCTION     0.96     1.76     7.61     0  01:54        1.62
  WS02004405           JUNCTION     0.94     1.70     7.55     0  01:54        1.57
  WS02004406           JUNCTION     0.93     1.70     7.53     0  01:54        1.48
  WS02004407           JUNCTION     0.32     0.83     7.14     0  02:05        0.83
  WS02004409           JUNCTION     0.66     2.02     7.79     0  01:56        1.31
  WS02004410           JUNCTION     0.66     1.24     6.96     0  02:04        1.23
  WS02004411           JUNCTION     0.65     1.16     6.84     0  02:04        1.16
  WS02004412           JUNCTION     0.65     1.07     6.71     0  02:04        1.07
  WS02004413           JUNCTION     0.77     1.19     6.66     0  01:56        1.13
  WS02006109           JUNCTION     1.12     2.64     9.26     0  02:00        2.64
  WS02006110           JUNCTION     1.04     2.70     9.29     0  01:54        2.34
  WS02006111           JUNCTION     0.47     2.18     8.88     0  01:54        1.60
  WS02006112           JUNCTION     1.11     2.64     8.52     0  01:54        2.20
  WS02006113           JUNCTION     0.58     2.65     9.55     0  01:54        1.73
  WS02006115           JUNCTION     0.81     2.08     8.22     0  01:54        1.80
  WS02006116           JUNCTION     0.87     1.98     8.02     0  01:54        1.80
  WS02006228           JUNCTION     1.19     3.03     9.68     0  02:03        2.98
  WS02006229           JUNCTION     1.21     3.22     9.92     0  02:03        3.15
  WS02006230           JUNCTION     1.18     2.65     9.39     0  01:58        2.65
  WS02006231           JUNCTION     0.87     2.19     9.31     0  02:20        2.18
  WS02006232           JUNCTION     0.99     2.18     9.22     0  01:57        2.18
  WS02006234           JUNCTION     0.91     1.96     9.12     0  01:52        1.96
  WS02006235           JUNCTION     0.94     2.00     9.16     0  01:52        1.96
  WS02006238           JUNCTION     0.97     2.09     9.24     0  01:52        1.98
  WS02006239           JUNCTION     0.94     2.03     9.24     0  01:52        1.89
  WS02006240           JUNCTION     0.90     2.10     9.39     0  01:52        1.68
  WS02006242           JUNCTION     0.97     1.55     8.82     0  01:52        1.55
  WS02006243           JUNCTION     0.88     1.48     8.90     0  01:52        1.36
  WS02006245           JUNCTION     0.87     1.54     9.02     0  01:52        1.27
  WS02006247           JUNCTION     0.89     1.39     8.89     0  01:52        1.22
  WS02006248           JUNCTION     0.84     1.10     8.69     0  01:52        1.10
  WS02006249           JUNCTION     0.86     1.09     8.69     0  01:52        1.09
  WS02006251           JUNCTION     0.96     2.12     9.79     0  02:03        2.05
  WS02006252           JUNCTION     0.60     1.50     9.74     0  01:50        1.50
  WS02006253           JUNCTION     1.02     2.86    10.51     0  02:03        2.62
  WS02006256           JUNCTION     1.22     2.35     9.28     0  00:00        2.35
  WS02006280           JUNCTION     0.27     1.74    10.01     0  02:03        1.66
  WS02006284           JUNCTION     0.54     1.94    10.34     0  02:03        1.84
  WS02006287           JUNCTION     0.27     1.72    10.67     0  02:03        1.59
  WSF200               JUNCTION     0.29     0.51     5.74     0  02:05        0.51
  YS02001580           JUNCTION     0.08     1.05     9.59     0  02:00        0.77
  YS02001583           JUNCTION     0.11     1.02     9.51     0  02:00        0.82
  YS02001586           JUNCTION     0.18     1.13     9.30     0  02:00        1.13
  YS02001590           JUNCTION     0.28     1.39     9.25     0  02:00        1.36
  YS02001593           JUNCTION     0.22     1.33     9.19     0  02:00        1.28
  YS02001596           JUNCTION     0.34     1.68     9.10     0  02:00        1.65
  YS02001600           JUNCTION     0.46     1.87     9.00     0  02:00        1.86
  YS02001601           JUNCTION     0.67     2.06     8.90     0  01:59        2.06
  YS02001602           JUNCTION     0.58     1.87     8.77     0  02:00        1.87
  YS02001605           JUNCTION     0.55     1.78     8.68     0  02:00        1.77
  YS02001607           JUNCTION     0.55     1.65     8.49     0  02:05        1.64
  YS02001610           JUNCTION     0.60     1.68     8.48     0  02:00        1.68
  YS02001613           JUNCTION     0.56     1.67     8.51     0  02:00        1.64
  YS02001616           JUNCTION     0.49     1.61     8.52     0  02:00        1.57
  YS02001619           JUNCTION     0.47     1.61     8.54     0  02:00        1.55
  YS02001622           JUNCTION     0.47     1.58     8.48     0  02:00        1.54
  YS02001625           JUNCTION     0.74     1.78     8.38     0  02:00        1.78
  YS02001629           JUNCTION     0.68     1.85     8.40     0  02:00        1.84
  YS02001633           JUNCTION     0.76     2.04     8.50     0  02:14        1.94
  YS02001641           JUNCTION     0.75     1.99     8.43     0  02:14        1.84
  YS02001644           JUNCTION     0.74     1.92     8.35     0  02:04        1.80
  YS02001647           JUNCTION     0.55     1.78     8.39     0  02:14        1.54
  YS02001649           JUNCTION     0.70     1.99     8.38     0  02:05        1.68
  YS02001652           JUNCTION     0.53     2.05     8.65     0  02:05        1.49
  YS02001655           JUNCTION     0.39     1.95     8.80     0  02:05        1.26
  YS02001658           JUNCTION     0.25     2.07     9.21     0  02:05        0.99
  YS02001661           JUNCTION     0.19     0.76     8.17     0  02:05        0.66
  YS02001664           JUNCTION     0.05     0.24     8.17     0  02:05        0.24
  YS02001745           JUNCTION     0.09     0.50     8.02     0  02:05        0.45
  YS02001748           JUNCTION     0.26     0.93     8.01     0  02:05        0.90
  YS02001751           JUNCTION     0.36     1.56     8.44     0  02:22        1.13
  YS02001754           JUNCTION     0.51     1.58     8.18     0  02:07        1.35
  YS02001757           JUNCTION     0.79     1.83     8.09     0  02:05        1.67
  YS02001759           JUNCTION     0.70     1.78     8.14     0  02:04        1.59
  YS02001762           JUNCTION     0.67     1.78     8.18     0  02:04        1.56
  YS02001765           JUNCTION     0.63     1.77     8.22     0  02:04        1.52
  YS02001767           JUNCTION     0.61     1.79     8.28     0  02:04        1.50
  YS02001770           JUNCTION     0.61     1.87     8.36     0  02:04        1.52
  YS02001774           JUNCTION     0.68     1.95     8.38     0  02:04        1.59
  YS02001779           JUNCTION     0.46     1.68     8.37     0  02:03        1.34
  YS02001783           JUNCTION     0.23     1.23     7.37     0  02:03        1.20
  YS02001784           JUNCTION     0.25     1.12     7.19     0  02:03        1.10
  YS02001786           JUNCTION     0.21     0.88     6.91     0  02:03        0.86
  YS02001788           JUNCTION     0.15     0.62     6.59     0  02:04        0.62
  YS02001790           JUNCTION     0.18     0.72     6.36     0  02:05        0.71
  YS02001791           JUNCTION     0.11     0.43     5.90     0  02:05        0.43
  YS02001793           JUNCTION     0.07     0.28     5.12     0  02:30        0.25
  YS02001882           JUNCTION     0.29     1.66     8.37     0  02:03        1.59
  YS02001884           JUNCTION     0.38     1.75     8.37     0  02:03        1.69
  YS02001887           JUNCTION     0.46     1.81     8.35     0  02:03        1.76
  YS02001890           JUNCTION     0.49     1.81     8.32     0  02:03        1.79
  YS02001895           JUNCTION     0.26     1.56     8.31     0  02:03        1.54
  YS02001898           JUNCTION     0.27     1.57     8.30     0  02:03        1.54
  YS02001901           JUNCTION     0.38     1.68     8.28     0  02:03        1.66
  YS02001904           JUNCTION     0.36     1.64     8.27     0  02:03        1.63
  YS02001907           JUNCTION     0.69     1.96     8.25     0  02:03        1.96
  YS02001910           JUNCTION     0.48     1.96     8.47     0  02:04        1.80
  YS02001915           JUNCTION     0.29     1.92     8.64     0  02:04        1.63
  YS02001918           JUNCTION     0.15     1.81     8.88     0  02:04        1.34
  YS02001920           JUNCTION     0.23     2.00     9.01     0  02:04        1.42
  YS02001923           JUNCTION     0.11     1.84     9.10     0  02:04        1.19
  YS02001926           JUNCTION     0.15     1.70     9.15     0  02:04        0.95
  YS02001929           JUNCTION     0.08     1.69     9.39     0  02:04        0.73
  YS02006553           JUNCTION     0.69     1.96     8.25     0  02:05        1.96
  YS02006556           JUNCTION     0.66     1.93     8.24     0  02:03        1.91
  YS02006558           JUNCTION     0.71     1.96     8.23     0  02:03        1.95
  YS02006561           JUNCTION     0.14     0.93     7.59     0  02:03        0.87
  YS02163301           JUNCTION     0.70     1.94     8.45     0  02:14        1.88
  YS02163601           JUNCTION     0.80     2.08     8.48     0  02:14        1.95
  YS02164001           JUNCTION     0.73     2.02     8.47     0  02:14        1.85
  YSB1154              JUNCTION     0.42     1.88    10.94     0  02:03        1.83
  YSB1171              JUNCTION     0.57     1.95    10.85     0  02:03        1.95
  YSB1174              JUNCTION     0.37     1.78    10.89     0  02:03        1.76
  YSB6556              JUNCTION     0.31     1.74    10.91     0  02:03        1.70
  CC-1                 OUTFALL      0.00     0.00     0.00     0  00:00        0.00
  CC-2                 OUTFALL      0.00     0.00     0.00     0  00:00        0.00
  JK-1                 OUTFALL      0.00     0.00     0.00     0  00:00        0.00
  JK-2                 OUTFALL      0.00     0.00     0.00     0  00:00        0.00
  WSC                  OUTFALL      0.34     0.50     1.17     0  02:08        0.50
  CC-storage           STORAGE      1.45     2.23     7.73     0  02:58        2.23
  JK-storage           STORAGE      0.29     4.37     5.17     0  02:30        4.29
  XR-storage           STORAGE      7.91     8.66     6.66     0  06:00        8.66
  
  
  *******************
  Node Inflow Summary
  *******************
  
  -------------------------------------------------------------------------------------------------
                                  Maximum  Maximum                  Lateral       Total        Flow
                                  Lateral    Total  Time of Max      Inflow      Inflow     Balance
                                   Inflow   Inflow   Occurrence      Volume      Volume       Error
  Node                 Type           LPS      LPS  days hr:min    10^6 ltr    10^6 ltr     Percent
  -------------------------------------------------------------------------------------------------
  HS02004478           JUNCTION      0.00  2179.67     0  02:05           0        5.78      -0.021
  HS02004479           JUNCTION      0.00   405.53     0  02:04           0       0.672       0.163
  HS02004480           JUNCTION      0.00  2090.14     0  02:01           0        4.66       0.073
  HS02004770           JUNCTION    777.36   777.36     0  02:05        1.38        1.59       0.201
  HS02004777           JUNCTION      0.03   731.57     0  01:59    0.000648        1.44       0.391
  HS02004785           JUNCTION      0.15   735.18     0  01:59     0.00324        1.44       0.047
  HS02004788           JUNCTION    288.62   879.06     0  01:59       0.552        1.99      -0.015
  HS02004792           JUNCTION    931.43  1603.19     0  02:05        1.76        3.74       0.019
  HS02004799           JUNCTION    191.65  1743.56     0  02:00       0.316           4       0.068
  HS02004802           JUNCTION      0.00   367.08     0  02:05           0        1.16       0.356
  HS02004807           JUNCTION    238.76   424.33     0  02:00       0.388        1.22       0.352
  HS02004817           JUNCTION      0.60   424.79     0  02:00       0.013       0.913       1.902
  HS02004824           JUNCTION    300.70   642.72     0  02:00       0.678        1.15       0.052
  HS02004830           JUNCTION      0.15   662.61     0  02:00     0.00324       0.723       0.200
  HS02004837           JUNCTION    224.33   823.29     0  02:01       0.505       0.957       0.059
  HS02004842           JUNCTION      0.00   866.88     0  02:01           0        0.69       1.969
  HS02004848           JUNCTION    267.99  1074.74     0  02:01       0.619        1.17       0.005
  HS02004852           JUNCTION      0.00  1008.58     0  02:01           0        1.06       0.049
  HS02004856           JUNCTION     97.28  1073.43     0  02:02        0.16        1.21       0.124
  HS02004862           JUNCTION    125.57  1185.97     0  02:03       0.266        1.48       0.041
  HS02004870           JUNCTION    129.93  1279.45     0  02:02       0.212        1.69       0.036
  HS02004876           JUNCTION    127.62  1355.49     0  02:02       0.219        1.91       0.056
  HS02004881           JUNCTION     70.07  1354.29     0  02:03       0.112        2.02       0.035
  HS02004901           JUNCTION    188.77   406.46     0  02:06       0.313       0.405       0.482
  WS02001211           JUNCTION      7.35   238.67     0  02:01       0.159        4.02       0.860
  WS02001212           JUNCTION      0.00   225.09     0  02:03           0        3.98       0.427
  WS02001213           JUNCTION      0.00   240.69     0  02:03           0        3.97       0.577
  WS02003059           JUNCTION      0.00   227.56     0  01:57           0        3.96       1.018
  WS02003060           JUNCTION     16.53  1470.61     0  02:06       0.357        13.5       0.223
  WS02003066           JUNCTION      0.00  1245.62     0  02:06           0        9.24       0.058
  WS02003067           JUNCTION      0.00  1243.05     0  02:05           0        9.25       0.114
  WS02003069           JUNCTION      0.32  1459.41     0  02:06     0.00691        13.5       0.237
  WS02003072           JUNCTION      0.00  1455.21     0  02:07           0        13.4       0.284
  WS02003073           JUNCTION      1.82  1457.17     0  02:07      0.0393        13.4       0.324
  WS02004138           JUNCTION      0.00   190.00     0  00:29           0        3.88       0.080
  WS02004139           JUNCTION      0.32   192.76     0  00:29     0.00693        3.89       0.715
  WS02004401           JUNCTION      0.00  1244.25     0  02:05           0        9.52       0.259
  WS02004402           JUNCTION      0.00  1244.32     0  02:05           0         9.5       0.240
  WS02004403           JUNCTION      0.00  1244.33     0  02:05           0        9.47       0.216
  WS02004404           JUNCTION      0.16  1244.55     0  02:05      0.0035        9.46       0.158
  WS02004405           JUNCTION      0.04  1244.55     0  02:05    0.000823        9.44       0.241
  WS02004406           JUNCTION      0.00  1245.01     0  02:01           0        9.42       0.385
  WS02004407           JUNCTION      0.00  1245.51     0  02:01           0        9.38       0.098
  WS02004409           JUNCTION      0.00  1243.18     0  02:05           0        9.37       0.217
  WS02004410           JUNCTION      0.00  1243.15     0  02:05           0        9.35       0.241
  WS02004411           JUNCTION      0.00  1243.23     0  02:05           0        9.33       0.242
  WS02004412           JUNCTION      0.00  1243.10     0  02:05           0        9.31       0.255
  WS02004413           JUNCTION      0.00  1243.05     0  02:05           0        9.29       0.370
  WS02006109           JUNCTION      1.23  1226.93     0  02:05      0.0266        9.44       0.240
  WS02006110           JUNCTION      0.00  1117.74     0  02:11           0        9.38       0.240
  WS02006111           JUNCTION      0.00  1117.63     0  02:11           0        9.35       0.041
  WS02006112           JUNCTION    154.01  1244.40     0  02:04       0.257         9.6       0.317
  WS02006113           JUNCTION      0.00  1117.92     0  02:11           0        9.36       0.142
  WS02006115           JUNCTION      0.00  1244.17     0  02:04           0        9.57       0.261
  WS02006116           JUNCTION      0.00  1244.57     0  02:05           0        9.54       0.235
  WS02006228           JUNCTION      0.00  1225.90     0  02:05           0        9.44       0.184
  WS02006229           JUNCTION      0.00  2179.31     0  02:05           0        10.8       0.131
  WS02006230           JUNCTION     10.28   964.10     0  02:05       0.222        6.37       0.266
  WS02006231           JUNCTION      0.00   472.01     0  03:10           0        5.73       0.200
  WS02006232           JUNCTION      0.00   469.75     0  03:10           0        5.72       0.317
  WS02006234           JUNCTION      0.00   463.78     0  03:10           0        5.71       0.192
  WS02006235           JUNCTION      0.00   453.14     0  03:10           0        5.68       0.189
  WS02006238           JUNCTION      0.00   418.57     0  03:28           0         5.5       0.161
  WS02006239           JUNCTION      0.00   418.54     0  03:28           0         5.5       0.250
  WS02006240           JUNCTION      0.00   418.48     0  03:28           0        5.51       0.306
  WS02006242           JUNCTION      0.00   418.44     0  03:28           0        5.53       0.334
  WS02006243           JUNCTION      0.00   453.91     0  01:52           0        5.31       0.267
  WS02006245           JUNCTION      0.00   484.32     0  01:52           0        5.32       0.247
  WS02006247           JUNCTION      0.00   508.26     0  01:52           0        5.33       0.173
  WS02006248           JUNCTION      0.00   561.68     0  01:52           0        5.51       0.170
  WS02006249           JUNCTION      0.00  1309.00     0  02:04           0        7.52       0.205
  WS02006251           JUNCTION      0.08  1382.52     0  02:03     0.00166        7.54       0.229
  WS02006252           JUNCTION      0.00   400.00     0  01:50           0        5.51       0.001
  WS02006253           JUNCTION     17.56  1378.11     0  02:03      0.0272        2.05       0.589
  WS02006256           JUNCTION      0.00   300.00     0  00:00           0       0.431      -0.343
  WS02006280           JUNCTION      0.00  2178.71     0  02:05           0        5.76       0.015
  WS02006284           JUNCTION      0.10  2179.38     0  02:05     0.00207        5.76       0.011
  WS02006287           JUNCTION      0.00  2179.80     0  02:05           0        5.76       0.018
  WSF200               JUNCTION      0.00  1246.11     0  02:06           0        9.24       0.061
  YS02001580           JUNCTION      0.00   127.82     0  02:00           0     0.00435      -0.097
  YS02001583           JUNCTION      0.00   178.08     0  02:00           0      0.0152      -5.221
  YS02001586           JUNCTION    343.30   343.40     0  02:05       0.863       0.874       0.173
  YS02001590           JUNCTION      0.00   317.78     0  02:09           0       0.855       0.048
  YS02001593           JUNCTION      0.00   317.80     0  02:09           0       0.855       0.060
  YS02001596           JUNCTION      0.00   317.82     0  02:09           0       0.855      -0.036
  YS02001600           JUNCTION      0.00   317.80     0  02:05           0       0.855      -0.031
  YS02001601           JUNCTION    651.21   968.69     0  02:05        1.25        2.11       0.061
  YS02001602           JUNCTION      0.00   547.43     0  01:59           0        1.64       0.047
  YS02001605           JUNCTION      0.00   547.75     0  01:59           0        1.57       0.055
  YS02001607           JUNCTION      0.00   548.04     0  01:59           0        1.57       0.156
  YS02001610           JUNCTION      0.00   538.86     0  01:59           0        1.57       0.196
  YS02001613           JUNCTION      0.00   545.20     0  01:59           0         1.5       0.150
  YS02001616           JUNCTION      0.00   550.55     0  01:59           0         1.5       0.058
  YS02001619           JUNCTION    604.91   932.75     0  01:59        1.36        2.86       0.020
  YS02001622           JUNCTION      0.00   925.24     0  02:00           0        2.85       0.009
  YS02001625           JUNCTION      0.00   928.68     0  02:00           0        2.85       0.590
  YS02001629           JUNCTION      0.00   929.49     0  02:00           0        2.66      -0.116
  YS02001633           JUNCTION    483.35  1326.28     0  02:02       0.899        3.56       0.107
  YS02001641           JUNCTION      0.00  1325.44     0  02:02           0        3.56       0.084
  YS02001644           JUNCTION    431.56  1701.08     0  02:02       0.776        4.33       0.079
  YS02001647           JUNCTION      0.00  1701.25     0  02:02           0        4.32      -0.001
  YS02001649           JUNCTION      0.00  1974.93     0  02:01           0        5.02       0.010
  YS02001652           JUNCTION      0.00   454.34     0  02:06           0       0.704      -0.118
  YS02001655           JUNCTION      0.15   480.23     0  02:05     0.00332       0.704      -0.252
  YS02001658           JUNCTION      0.00   713.28     0  02:05           0       0.766      -0.645
  YS02001661           JUNCTION      0.00   459.48     0  02:12           0       0.762       0.139
  YS02001664           JUNCTION    408.17   408.17     0  02:05        0.69        0.69      -0.038
  YS02001745           JUNCTION    268.77   268.77     0  02:05       0.432       0.506       0.513
  YS02001748           JUNCTION      0.04   423.92     0  02:05    0.000972       0.528      -0.467
  YS02001751           JUNCTION      0.01   382.82     0  02:06    0.000238       0.468      -0.212
  YS02001754           JUNCTION      0.26   306.92     0  02:06     0.00562       0.464      -0.321
  YS02001757           JUNCTION      0.00  2823.66     0  02:05           0           7       0.102
  YS02001759           JUNCTION    369.51   972.07     0  02:03       0.592        1.52      -0.034
  YS02001762           JUNCTION      0.00   608.55     0  02:03           0       0.933      -0.024
  YS02001765           JUNCTION      0.00   598.03     0  02:03           0       0.933       0.011
  YS02001767           JUNCTION      0.54   592.43     0  02:03      0.0116       0.932      -0.008
  YS02001770           JUNCTION    535.50   598.28     0  02:03       0.916       0.973      -0.045
  YS02001774           JUNCTION      0.00   329.36     0  02:03           0      0.0827       0.841
  YS02001779           JUNCTION      0.01   339.08     0  02:03    0.000108      0.0277      -4.104
  YS02001783           JUNCTION      0.00  1146.67     0  02:04           0        2.75       0.012
  YS02001784           JUNCTION      1.06  1147.98     0  02:04      0.0229        2.77       0.022
  YS02001786           JUNCTION      0.06  1148.12     0  02:04     0.00122        2.77       0.027
  YS02001788           JUNCTION      0.07  1148.50     0  02:04     0.00153        2.77       0.013
  YS02001790           JUNCTION      0.15  1161.13     0  02:06     0.00335        2.77       0.014
  YS02001791           JUNCTION      0.00  1278.06     0  02:05           0        2.77      -0.002
  YS02001793           JUNCTION      0.00  1232.07     0  02:05           0        2.77       0.010
  YS02001882           JUNCTION      0.00    41.55     0  02:00           0      0.0121       5.769
  YS02001884           JUNCTION      0.00    77.82     0  02:00           0      0.0475       5.801
  YS02001887           JUNCTION    396.56   396.59     0  02:05       0.631       0.664       0.706
  YS02001890           JUNCTION      0.00   397.14     0  02:05           0       0.624       0.846
  YS02001895           JUNCTION      0.00   397.31     0  02:05           0       0.618       0.254
  YS02001898           JUNCTION      0.00   402.44     0  02:01           0       0.617       0.083
  YS02001901           JUNCTION      0.00   412.28     0  02:01           0       0.619       0.548
  YS02001904           JUNCTION      0.00   414.53     0  02:01           0       0.624       0.480
  YS02001907           JUNCTION      0.00  1319.91     0  02:05           0           2       0.934
  YS02001910           JUNCTION      0.00   922.74     0  02:05           0        1.39       0.536
  YS02001915           JUNCTION    472.73   922.59     0  02:04       0.869        1.42       0.132
  YS02001918           JUNCTION      0.00   450.54     0  02:04           0       0.573       0.019
  YS02001920           JUNCTION      2.87   450.00     0  02:04       0.062       0.557       0.196
  YS02001923           JUNCTION      0.04   403.42     0  02:04    0.000814       0.481      -0.053
  YS02001926           JUNCTION      0.05   412.28     0  02:03     0.00113       0.465       0.042
  YS02001929           JUNCTION    226.29   255.95     0  02:04       0.457       0.457      -0.057
  YS02006553           JUNCTION      0.00   784.18     0  02:12           0        1.88       0.646
  YS02006556           JUNCTION      0.00   784.34     0  02:12           0        1.89       0.442
  YS02006558           JUNCTION    542.01  1147.78     0  02:04       0.915        2.78       0.126
  YS02006561           JUNCTION      0.00  1146.80     0  02:04           0        2.75       0.009
  YS02163301           JUNCTION      0.00   910.03     0  02:01           0        2.66       0.066
  YS02163601           JUNCTION      0.11  1325.98     0  02:02     0.00238        3.56       0.140
  YS02164001           JUNCTION      0.00  1325.15     0  02:02           0        3.55       0.067
  YSB1154              JUNCTION    221.25   221.25     0  02:05       0.379        0.38       0.409
  YSB1171              JUNCTION      0.00   406.51     0  02:04           0       0.673       0.986
  YSB1174              JUNCTION    185.13   185.13     0  02:05       0.287       0.287       0.483
  YSB6556              JUNCTION      0.00   221.12     0  02:05           0       0.381       0.370
  CC-1                 OUTFALL       0.00   683.00     0  02:20           0       0.821       0.000
  CC-2                 OUTFALL       0.00   683.00     0  03:30           0       0.411       0.000
  JK-1                 OUTFALL       0.00  1000.00     0  00:00           0        2.06       0.000
  JK-2                 OUTFALL       0.00  1000.00     0  02:00           0        1.11       0.000
  WSC                  OUTFALL       0.00  1457.30     0  02:08           0        13.4       0.000
  CC-storage           STORAGE       0.00  2824.70     0  02:05           0        9.21      -0.042
  JK-storage           STORAGE       0.00  1279.88     0  02:05           0        2.92     -18.591
  XR-storage           STORAGE     200.00   200.00     0  00:00        4.32        4.92       0.001
  
  
  **********************
  Node Surcharge Summary
  **********************
  
  Surcharging occurs when water rises above the top of the highest conduit.
  ---------------------------------------------------------------------
                                               Max. Height   Min. Depth
                                   Hours       Above Crown    Below Rim
  Node                 Type      Surcharged         Meters       Meters
  ---------------------------------------------------------------------
  HS02004478           JUNCTION        0.23          0.641        0.299
  HS02004479           JUNCTION        0.35          0.898        0.152
  HS02004480           JUNCTION        0.39          0.961        0.139
  HS02004770           JUNCTION        0.31          0.720        0.000
  HS02004777           JUNCTION        0.31          0.780        0.000
  HS02004785           JUNCTION        0.27          0.790        0.000
  HS02004788           JUNCTION        0.26          0.720        0.000
  HS02004792           JUNCTION        0.36          0.900        0.000
  HS02004799           JUNCTION        0.45          1.060        0.000
  HS02004802           JUNCTION        0.39          1.046        0.164
  HS02004807           JUNCTION        0.38          1.184        0.036
  HS02004817           JUNCTION        0.81          1.676        0.064
  HS02004824           JUNCTION        0.25          1.262        0.048
  HS02004830           JUNCTION        0.22          1.284        0.046
  HS02004837           JUNCTION        0.18          1.230        0.110
  HS02004842           JUNCTION        0.31          1.520        0.000
  HS02004848           JUNCTION        0.12          1.234        0.136
  HS02004852           JUNCTION        0.15          1.241        0.179
  HS02004856           JUNCTION        0.12          1.175        0.125
  HS02004862           JUNCTION        0.17          1.176        0.124
  HS02004870           JUNCTION        0.18          1.112        0.288
  HS02004876           JUNCTION        0.23          1.157        0.403
  HS02004881           JUNCTION        0.20          0.907        0.543
  HS02004901           JUNCTION        0.32          0.720        0.000
  WS02004401           JUNCTION        1.18          0.785        0.875
  WS02004402           JUNCTION        1.21          0.689        1.051
  WS02004403           JUNCTION        1.22          0.725        1.305
  WS02004404           JUNCTION        1.47          0.765        2.015
  WS02004405           JUNCTION        1.43          0.703        2.097
  WS02004406           JUNCTION        1.39          0.700        1.750
  WS02004409           JUNCTION        0.59          1.020        1.340
  WS02004410           JUNCTION        0.58          0.241        2.299
  WS02004411           JUNCTION        0.55          0.164        2.366
  WS02004412           JUNCTION        0.47          0.074        2.236
  WS02004413           JUNCTION        0.91          0.188        2.012
  WS02006109           JUNCTION        4.19          1.820        0.000
  WS02006110           JUNCTION        1.66          1.793        0.057
  WS02006111           JUNCTION        0.84          1.368        0.502
  WS02006112           JUNCTION        1.84          1.640        0.040
  WS02006113           JUNCTION        0.87          1.854        0.076
  WS02006115           JUNCTION        1.04          1.074        1.176
  WS02006116           JUNCTION        1.07          0.920        1.370
  WS02006228           JUNCTION        4.19          2.197        0.003
  WS02006229           JUNCTION        0.59          1.042        0.028
  WS02006230           JUNCTION        1.47          1.570        0.000
  WS02006231           JUNCTION        1.66          1.479        0.051
  WS02006232           JUNCTION        4.14          1.480        0.000
  WS02006234           JUNCTION        3.51          1.240        0.000
  WS02006235           JUNCTION        4.12          1.290        0.000
  WS02006238           JUNCTION        4.12          1.374        0.056
  WS02006239           JUNCTION        4.12          1.290        0.000
  WS02006240           JUNCTION        4.12          1.390        0.000
  WS02006242           JUNCTION        4.12          0.820        0.000
  WS02006243           JUNCTION        4.12          0.770        0.000
  WS02006245           JUNCTION        4.12          0.827        0.023
  WS02006247           JUNCTION        4.12          0.678        0.082
  WS02006248           JUNCTION        4.12          0.380        0.000
  WS02006249           JUNCTION        4.12          0.390        0.000
  WS02006251           JUNCTION        1.80          1.092        0.088
  WS02006252           JUNCTION        4.16          1.100        0.000
  WS02006253           JUNCTION        1.86          1.823        0.657
  WS02006256           JUNCTION        4.66          2.050        0.000
  WS02006280           JUNCTION        0.47          0.693        0.087
  WS02006284           JUNCTION        0.41          0.658        0.142
  WS02006287           JUNCTION        0.33          0.719        0.171
  YS02001580           JUNCTION        0.27          0.450        0.000
  YS02001583           JUNCTION        0.28          0.378        0.122
  YS02001586           JUNCTION        0.49          0.510        0.000
  YS02001590           JUNCTION        0.56          0.743        0.007
  YS02001593           JUNCTION        0.57          0.711        0.129
  YS02001596           JUNCTION        0.69          0.951        0.119
  YS02001600           JUNCTION        1.11          1.190        0.000
  YS02001601           JUNCTION        1.79          1.440        0.000
  YS02001602           JUNCTION        1.75          1.270        0.000
  YS02001605           JUNCTION        1.73          1.178        0.002
  YS02001607           JUNCTION        0.74          0.646        0.034
  YS02001610           JUNCTION        0.91          0.680        0.000
  YS02001613           JUNCTION        0.75          0.671        0.029
  YS02001616           JUNCTION        0.63          0.610        0.000
  YS02001619           JUNCTION        0.61          0.608        0.002
  YS02001622           JUNCTION        0.63          0.581        0.039
  YS02001625           JUNCTION        1.55          0.780        0.000
  YS02001629           JUNCTION        0.55          0.470        0.000
  YS02001633           JUNCTION        1.64          1.023        0.037
  YS02001641           JUNCTION        1.64          0.992        0.108
  YS02001644           JUNCTION        1.63          0.920        0.000
  YS02001647           JUNCTION        1.47          0.780        0.120
  YS02001649           JUNCTION        1.61          0.993        0.057
  YS02001652           JUNCTION        1.39          1.019        0.111
  YS02001655           JUNCTION        0.28          0.952        0.248
  YS02001658           JUNCTION        0.01          1.069        0.231
  YS02001751           JUNCTION        0.07          0.564        0.636
  YS02001754           JUNCTION        1.28          0.525        0.625
  YS02001757           JUNCTION        1.80          0.830        0.380
  YS02001759           JUNCTION        1.61          0.777        0.433
  YS02001762           JUNCTION        1.59          0.782        0.368
  YS02001765           JUNCTION        1.56          0.767        0.333
  YS02001767           JUNCTION        1.53          0.791        0.239
  YS02001770           JUNCTION        1.51          0.840        0.080
  YS02001774           JUNCTION        1.57          0.954        0.096
  YS02001779           JUNCTION        1.16          0.680        0.000
  YS02001783           JUNCTION        0.32          0.433        1.167
  YS02001784           JUNCTION        0.30          0.319        1.171
  YS02001786           JUNCTION        0.19          0.078        1.352
  YS02001882           JUNCTION        0.27          0.657        0.173
  YS02001884           JUNCTION        0.28          0.689        0.181
  YS02001887           JUNCTION        0.32          0.763        0.187
  YS02001890           JUNCTION        0.33          0.760        0.000
  YS02001895           JUNCTION        0.26          0.564        0.186
  YS02001898           JUNCTION        0.25          0.536        0.204
  YS02001901           JUNCTION        0.30          0.676        0.194
  YS02001904           JUNCTION        0.29          0.636        0.214
  YS02001907           JUNCTION        0.49          0.950        0.000
  YS02001910           JUNCTION        0.35          0.965        0.135
  YS02001915           JUNCTION        0.27          0.918        0.082
  YS02001918           JUNCTION        0.18          0.810        0.000
  YS02001920           JUNCTION        0.19          0.998        0.142
  YS02001923           JUNCTION        0.01          0.628        0.192
  YS02001926           JUNCTION        0.01          0.703        0.197
  YS02001929           JUNCTION        0.01          0.692        0.088
  YS02006553           JUNCTION        0.50          0.963        0.227
  YS02006556           JUNCTION        0.42          0.887        0.463
  YS02006558           JUNCTION        0.42          0.864        0.536
  YS02006561           JUNCTION        0.14          0.125        1.025
  YS02163301           JUNCTION        1.61          0.937        0.093
  YS02163601           JUNCTION        1.68          1.080        0.000
  YS02164001           JUNCTION        1.63          1.016        0.084
  YSB1154              JUNCTION        0.54          1.179        0.221
  YSB1171              JUNCTION        0.55          1.100        0.000
  YSB1174              JUNCTION        0.48          1.083        0.167
  YSB6556              JUNCTION        0.44          1.040        0.060
  
  
  *********************
  Node Flooding Summary
  *********************
  
  Flooding refers to all water that overflows a node, whether it ponds or not.
  --------------------------------------------------------------------------
                                                             Total   Maximum
                                 Maximum   Time of Max       Flood    Ponded
                        Hours       Rate    Occurrence      Volume     Depth
  Node                 Flooded       LPS   days hr:min    10^6 ltr    Meters
  --------------------------------------------------------------------------
  HS02004770              0.13    187.27      0  02:03       0.060     0.000
  HS02004777              0.01     50.35      0  02:00       0.000     0.000
  HS02004785              0.01    105.37      0  02:00       0.000     0.000
  HS02004788              0.01    204.48      0  01:59       0.001     0.000
  HS02004792              0.11    383.48      0  02:05       0.057     0.000
  HS02004799              0.01     60.90      0  02:03       0.001     0.000
  HS02004842              0.01     32.36      0  02:03       0.000     0.000
  HS02004901              0.20    406.46      0  02:06       0.194     0.000
  WS02006109              0.18    136.84      0  02:05       0.041     0.000
  WS02006230              0.42    511.14      0  02:05       0.433     0.000
  WS02006232              0.12      0.59      0  02:01       0.000     0.000
  WS02006234              0.47    127.86      0  02:22       0.100     0.000
  WS02006235              0.01     68.31      0  01:52       0.000     0.000
  WS02006239              0.01    199.67      0  01:52       0.001     0.000
  WS02006240              0.01    162.45      0  01:52       0.000     0.000
  WS02006242              0.58    271.82      0  01:53       0.235     0.000
  WS02006243              0.01     59.42      0  01:52       0.000     0.000
  WS02006248              0.76    350.39      0  01:58       0.754     0.000
  WS02006249              1.57   1245.50      0  02:04       2.585     0.000
  WS02006252              0.01    263.92      0  01:50       0.002     0.000
  WS02006256              0.37    293.98      0  02:20       0.188     0.000
  YS02001580              0.01    107.35      0  02:00       0.000     0.000
  YS02001586              0.12     77.34      0  02:00       0.006     0.000
  YS02001600              0.01      1.32      0  02:00       0.000     0.000
  YS02001601              0.43    570.75      0  02:05       0.465     0.000
  YS02001602              0.39     61.93      0  02:14       0.070     0.000
  YS02001610              0.27    125.48      0  02:05       0.069     0.000
  YS02001616              0.01      6.27      0  02:00       0.000     0.000
  YS02001625              0.29    436.93      0  02:06       0.182     0.000
  YS02001629              0.01    111.11      0  02:00       0.001     0.000
  YS02001644              0.01     25.37      0  02:05       0.000     0.000
  YS02001779              0.01    248.91      0  02:03       0.001     0.000
  YS02001890              0.01     12.91      0  02:03       0.000     0.000
  YS02001907              0.12    716.11      0  02:05       0.115     0.000
  YS02001918              0.01     36.13      0  02:04       0.000     0.000
  YS02163601              0.01      3.23      0  02:14       0.000     0.000
  YSB1171                 0.02     95.61      0  02:03       0.002     0.000
  
  
  **********************
  Storage Volume Summary
  **********************
  
  --------------------------------------------------------------------------------------------------
                         Average     Avg  Evap Exfil       Maximum     Max    Time of Max    Maximum
                          Volume    Pcnt  Pcnt  Pcnt        Volume    Pcnt     Occurrence    Outflow
  Storage Unit           1000 m3    Full  Loss  Loss       1000 m3    Full    days hr:min        LPS
  --------------------------------------------------------------------------------------------------
  CC-storage               4.052      63     0     0         6.204      97       0  02:58    1766.00
  JK-storage               0.015       5     0     0         0.220      75       0  02:30    2000.00
  XR-storage               0.949      66     0     0         1.039      72       0  06:00     190.00
  
  
  ***********************
  Outfall Loading Summary
  ***********************
  
  -----------------------------------------------------------
                         Flow       Avg       Max       Total
                         Freq      Flow      Flow      Volume
  Outfall Node           Pcnt       LPS       LPS    10^6 ltr
  -----------------------------------------------------------
  CC-1                   7.08    683.00    683.00       0.821
  CC-2                   3.01    683.00    683.00       0.411
  JK-1                  84.61    152.37   1000.00       2.055
  JK-2                  22.15    339.96   1000.00       1.105
  WSC                   99.96    748.95   1457.30      13.392
  -----------------------------------------------------------
  System                43.36   2607.29   1457.30      17.784
  
  
  ********************
  Link Flow Summary
  ********************
  
  -----------------------------------------------------------------------------
                                 Maximum  Time of Max   Maximum    Max/    Max/
                                  |Flow|   Occurrence   |Veloc|    Full    Full
  Link                 Type          LPS  days hr:min     m/sec    Flow   Depth
  -----------------------------------------------------------------------------
  1                    CONDUIT   1457.30     0  02:08      3.67    0.51    0.50
  HS02004478WS02006287 CONDUIT   2179.80     0  02:05      2.57    0.61    1.00
  HS02004479HS02004480 CONDUIT    406.15     0  02:04      0.58    0.39    1.00
  HS02004480HS02004478 CONDUIT   2093.83     0  02:01      2.99    8.82    1.00
  HS02004770HS02004777 CONDUIT    731.54     0  01:59      1.05    1.34    1.00
  HS02004777HS02004785 CONDUIT    735.03     0  01:59      1.08    0.90    1.00
  HS02004785HS02004788 CONDUIT    663.22     0  01:59      1.35    5.00    1.00
  HS02004788HS02004792 CONDUIT    834.52     0  02:00      1.46    0.55    1.00
  HS02004792HS02004799 CONDUIT   1580.96     0  02:00      2.26    0.97    1.00
  HS02004799HS02004480 CONDUIT   1740.28     0  02:00      2.49    2.20    1.00
  HS02004802HS02004478 CONDUIT    367.38     0  02:05      0.69    0.32    1.00
  HS02004807HS02004802 CONDUIT    367.08     0  02:05      0.62    0.70    1.00
  HS02004817HS02004807 CONDUIT    424.19     0  02:00      0.61    0.25    1.00
  HS02004817HS02004824 CONDUIT    425.04     0  02:00      0.61    0.19    1.00
  HS02004824HS02004830 CONDUIT    662.46     0  02:00      0.97    0.87    1.00
  HS02004830HS02004837 CONDUIT    631.82     0  02:01      0.98    0.63    1.00
  HS02004837HS02004842 CONDUIT    866.88     0  02:01      1.24    0.52    1.00
  HS02004842HS02004848 CONDUIT    865.93     0  02:01      1.38    0.50    1.00
  HS02004848HS02004852 CONDUIT   1008.58     0  02:01      1.61    1.14    1.00
  HS02004852HS02004856 CONDUIT    981.73     0  02:02      1.47    1.12    1.00
  HS02004856HS02004862 CONDUIT   1070.81     0  02:03      1.70    1.07    1.00
  HS02004862HS02004870 CONDUIT   1157.80     0  02:02      1.95    1.25    1.00
  HS02004870HS02004876 CONDUIT   1238.38     0  02:02      1.99    0.82    1.00
  HS02004876HS02004881 CONDUIT   1285.73     0  02:03      2.60   13.68    1.00
  HS02004881HS02006253 CONDUIT   1360.70     0  02:03      2.75    0.27    1.00
  HS02004901HS02004770 CONDUIT    253.63     0  02:07      0.36    0.95    1.00
  WS02001211WS02001212 CONDUIT    225.09     0  02:03      0.54    0.17    0.68
  WS02001212WS02001213 CONDUIT    240.69     0  02:03      1.03    0.37    0.55
  WS02001213WS02003059 CONDUIT    226.50     0  02:34      0.47    0.37    0.88
  WS02003059WS02003060 CONDUIT    233.72     0  02:34      0.67    0.15    0.80
  WS02003060WS02003069 CONDUIT   1459.09     0  02:06      2.07    0.57    0.60
  WS02003066WSF200     CONDUIT   1246.11     0  02:06      3.44    0.21    0.37
  WS02003067WS02003066 CONDUIT   1245.62     0  02:06      1.95    0.40    0.55
  WS02003069WS02003072 CONDUIT   1455.21     0  02:07      1.87    0.70    0.65
  WS02003072WS02003073 CONDUIT   1455.35     0  02:07      2.03    3.14    0.61
  WS02004138WS02004139 CONDUIT    192.44     0  00:29      2.15    0.04    0.41
  WS02004139WS02001211 CONDUIT    231.32     0  02:01      0.54    0.29    0.59
  WS02004401WS02004402 CONDUIT   1244.32     0  02:05      1.58    1.49    1.00
  WS02004402WS02004403 CONDUIT   1244.33     0  02:05      1.58    1.79    1.00
  WS02004403WS02004404 CONDUIT   1244.39     0  02:05      1.58    0.90    1.00
  WS02004404WS02004405 CONDUIT   1244.51     0  02:05      1.58   12.19    1.00
  WS02004405WS02004406 CONDUIT   1245.01     0  02:01      1.59    2.46    1.00
  WS02004406WS02004407 CONDUIT   1245.51     0  02:01      1.86    0.56    0.91
  WS02004407WS02004409 CONDUIT   1243.18     0  02:05      2.05    0.44    0.91
  WS02004409WS02004410 CONDUIT   1243.15     0  02:05      1.58    1.61    1.00
  WS02004410WS02004411 CONDUIT   1243.23     0  02:05      1.58    1.70    1.00
  WS02004411WS02004412 CONDUIT   1243.10     0  02:05      1.58    1.77    1.00
  WS02004412WS02004413 CONDUIT   1243.05     0  02:05      1.58    0.83    1.00
  WS02004413WS02003067 CONDUIT   1243.05     0  02:05      1.94    0.53    0.76
  WS02006109WS02006110 CONDUIT   1117.74     0  02:11      2.22    2.15    1.00
  WS02006110WS02006113 CONDUIT   1117.92     0  02:11      2.25    1.02    1.00
  WS02006111WS02006112 CONDUIT   1117.69     0  02:11      2.22    0.53    1.00
  WS02006112WS02006115 CONDUIT   1244.17     0  02:04      1.58    0.73    1.00
  WS02006113WS02006111 CONDUIT   1117.63     0  02:11      2.67    1.34    1.00
  WS02006115WS02006116 CONDUIT   1244.57     0  02:05      1.58    1.60    1.00
  WS02006116WS02004401 CONDUIT   1244.25     0  02:05      1.58    1.72    1.00
  WS02006228WS02006109 CONDUIT   1225.70     0  02:05      2.44    5.36    1.00
  WS02006229WS02006228 CONDUIT   1225.90     0  02:05      2.44    4.06    1.00
  WS02006230WS02006229 CONDUIT    953.82     0  02:05      2.48   21.23    1.00
  WS02006231WS02006230 CONDUIT    473.52     0  03:10      1.24    7.18    1.00
  WS02006232WS02006231 CONDUIT    472.01     0  03:10      1.23    0.99    1.00
  WS02006234WS02006232 CONDUIT    469.75     0  03:10      1.39    0.95    1.00
  WS02006235WS02006234 CONDUIT    463.78     0  03:10      1.21    4.89    1.00
  WS02006238WS02006235 CONDUIT    418.64     0  03:28      1.46    0.93    1.00
  WS02006239WS02006238 CONDUIT    418.57     0  03:28      1.09    1.34    1.00
  WS02006240WS02006239 CONDUIT    418.54     0  03:28      1.09    1.32    1.00
  WS02006242WS02006240 CONDUIT    418.48     0  03:28      1.09    1.66    1.00
  WS02006243WS02006242 CONDUIT    418.44     0  03:28      1.09    0.89    1.00
  WS02006245WS02006243 CONDUIT    453.91     0  01:52      1.37    1.34    1.00
  WS02006247WS02006245 CONDUIT    484.32     0  01:52      1.37    3.84    1.00
  WS02006248WS02006247 CONDUIT    508.26     0  01:52      1.38    1.11    1.00
  WS02006249WS02006248 CONDUIT    561.68     0  01:52      1.51    3.08    1.00
  WS02006251WS02006249 CONDUIT   1309.00     0  02:04      3.40    3.77    1.00
  WS02006252WS02006251 CONDUIT    408.92     0  01:53      3.25    1.50    1.00
  WS02006253WS02006251 CONDUIT   1382.44     0  02:03      3.59    4.15    1.00
  WS02006256WS02006235 CONDUIT    288.92     0  00:00      4.23    3.06    1.00
  WS02006280WS02006229 CONDUIT   2179.31     0  02:05      4.50    0.47    1.00
  WS02006284WS02006280 CONDUIT   2178.71     0  02:05      2.96    0.91    1.00
  WS02006287WS02006284 CONDUIT   2179.29     0  02:05      2.77    1.01    1.00
  WSF200WS02003060     CONDUIT   1248.73     0  02:04      2.64    0.28    0.49
  YS02001580YS02001583 CONDUIT    127.82     0  02:00      0.72    0.50    1.00
  YS02001583YS02001586 CONDUIT    163.22     0  02:00      0.72    0.25    1.00
  YS02001586YS02001590 CONDUIT    317.78     0  02:09      1.28    0.56    1.00
  YS02001590YS02001593 CONDUIT    317.80     0  02:09      1.12    1.99    1.00
  YS02001593YS02001596 CONDUIT    317.82     0  02:09      1.61    0.50    1.00
  YS02001596YS02001600 CONDUIT    317.80     0  02:05      1.12    0.62    1.00
  YS02001600YS02001601 CONDUIT    317.77     0  02:09      1.12    0.55    1.00
  YS02001601YS02001602 CONDUIT    547.43     0  01:59      1.94    1.98    1.00
  YS02001602YS02001605 CONDUIT    547.75     0  01:59      1.94   11.59    1.00
  YS02001605YS02001607 CONDUIT    548.04     0  01:59      1.94    3.01    1.00
  YS02001607YS02001610 CONDUIT    538.86     0  01:59      0.69    0.51    1.00
  YS02001610YS02001613 CONDUIT    545.20     0  01:59      0.69    0.63    1.00
  YS02001613YS02001616 CONDUIT    550.55     0  01:59      0.70    0.47    1.00
  YS02001616YS02001619 CONDUIT    521.10     0  01:59      0.67    0.90    1.00
  YS02001619YS02001622 CONDUIT    925.24     0  02:00      1.25    1.36    1.00
  YS02001622YS02001625 CONDUIT    928.68     0  02:00      1.18    0.50    1.00
  YS02001625YS02001629 CONDUIT    929.49     0  02:00      1.19    0.44    1.00
  YS02001629YS02163301 CONDUIT    910.03     0  02:01      1.16    1.12    1.00
  YS02001633YS02163601 CONDUIT   1325.87     0  02:02      1.69    1.39    1.00
  YS02001641YS02001644 CONDUIT   1324.35     0  02:02      1.69    4.28    1.00
  YS02001644YS02001647 CONDUIT   1701.25     0  02:02      2.23    1.00    1.00
  YS02001647YS02001649 CONDUIT   1700.88     0  02:02      2.32    0.90    1.00
  YS02001649YS02001757 CONDUIT   1930.94     0  02:02      2.46    1.17    1.00
  YS02001652YS02001649 CONDUIT    454.79     0  02:06      0.80    0.23    1.00
  YS02001655YS02001652 CONDUIT    454.34     0  02:06      1.46    0.22    1.00
  YS02001658YS02001655 CONDUIT    480.07     0  02:05      1.96    0.20    1.00
  YS02001661YS02001658 CONDUIT    713.28     0  02:05      2.25    0.28    0.81
  YS02001664YS02001661 CONDUIT    407.53     0  02:05      2.11    0.13    0.50
  YS02001745YS02001748 CONDUIT    423.88     0  02:05      2.10    0.16    0.62
  YS02001748YS02001751 CONDUIT    382.81     0  02:06      1.72    0.19    0.97
  YS02001751YS02001754 CONDUIT    306.66     0  02:06      1.58    0.15    1.00
  YS02001754YS02001757 CONDUIT    307.81     0  02:06      0.58    0.12    1.00
  YS02001757CaochengTiaoxuchi CONDUIT   2824.70     0  02:05      3.60    1.22    1.00
  YS02001759YS02001757 CONDUIT    977.18     0  02:03      1.24    0.69    1.00
  YS02001762YS02001759 CONDUIT    616.94     0  02:03      0.79    0.71    1.00
  YS02001765YS02001762 CONDUIT    608.55     0  02:03      0.77    0.57    1.00
  YS02001767YS02001765 CONDUIT    598.03     0  02:03      0.84    0.75    1.00
  YS02001770YS02001767 CONDUIT    591.90     0  02:03      0.87    2.34    1.00
  YS02001774YS02001770 CONDUIT    329.36     0  02:03      0.42    0.21    1.00
  YS02001779YS02001774 CONDUIT    339.07     0  02:03      0.44    0.17    1.00
  YS02001783YS02001784 CONDUIT   1146.92     0  02:04      2.28    1.58    1.00
  YS02001784YS02001785 CONDUIT   1148.07     0  02:04      2.28    2.67    1.00
  YS02001786YS02001788 CONDUIT   1148.43     0  02:04      2.46    2.21    0.89
  YS02001788YS02001790 CONDUIT   1160.98     0  02:06      2.71    0.86    0.83
  YS02001790YS02001791 CONDUIT   1278.06     0  02:05      3.42    1.39    0.70
  YS02001791YS02001793 CONDUIT   1232.07     0  02:05      6.66    0.53    0.43
  YS02001793JiankangQianchi CONDUIT   1279.88     0  02:05     24.44    0.10    0.64
  YS02001882YS02001884 CONDUIT     41.55     0  02:00      0.09    0.05    1.00
  YS02001884YS02001887 CONDUIT     77.82     0  02:00      0.10    0.10    1.00
  YS02001887YS02001890 CONDUIT    397.14     0  02:05      0.51    0.68    1.00
  YS02001890YS02001895 CONDUIT    397.31     0  02:05      0.51    0.19    1.00
  YS02001895YS02001898 CONDUIT    402.44     0  02:01      0.51    0.70    1.00
  YS02001898YS02001901 CONDUIT    412.28     0  02:01      0.52    0.27    1.00
  YS02001901YS02001904 CONDUIT    414.53     0  02:01      0.53    0.64    1.00
  YS02001904YS02001907 CONDUIT    417.73     0  02:01      0.53    0.15    1.00
  YS02001907YS02006553 CONDUIT    784.18     0  02:12      0.87    0.92    1.00
  YS02001910YS02001907 CONDUIT    922.78     0  02:04      1.17    0.52    1.00
  YS02001915YS02001910 CONDUIT    922.74     0  02:05      1.17    0.46    1.00
  YS02001918YS02001915 CONDUIT    450.88     0  02:04      0.57    0.25    1.00
  YS02001920YS02001918 CONDUIT    450.54     0  02:04      0.65    0.44    1.00
  YS02001923YS02001920 CONDUIT    447.13     0  02:04      0.74    0.20    1.00
  YS02001926YS02001923 CONDUIT    403.38     0  02:04      0.95    0.58    1.00
  YS02001929YS02001926 CONDUIT    402.21     0  02:04      1.09    0.19    1.00
  YS02006553YS02006556 CONDUIT    784.34     0  02:12      1.00    0.67    1.00
  YS02006556YS02006558 CONDUIT    785.01     0  02:12      1.00    0.62    1.00
  YS02006558YS02006561 CONDUIT   1146.80     0  02:04      4.06    2.53    1.00
  YS02006561YS02001783 CONDUIT   1146.67     0  02:04      2.28    0.59    1.00
  YS02163301YS02001633 CONDUIT    909.57     0  02:01      1.16    0.86    1.00
  YS02163601YS02164001 CONDUIT   1325.15     0  02:02      1.69    1.17    1.00
  YS02164001YS02001641 CONDUIT   1325.44     0  02:02      1.69    1.81    1.00
  YSB1154YSB6556       CONDUIT    221.12     0  02:05      0.57    0.40    1.00
  YSB1171HS02004479    CONDUIT    405.53     0  02:04      0.81    0.27    1.00
  YSB1174YSB1171       CONDUIT    185.23     0  02:04      0.48    0.28    1.00
  YSB6556YSB1171       CONDUIT    221.28     0  02:04      0.57    0.23    1.00
  CC-R1                PUMP       683.00     0  02:20              1.00
  CC-R2                PUMP       683.00     0  03:30              1.00
  CC-S1                PUMP       200.00     0  01:50              1.00
  CC-S2                PUMP       200.00     0  01:50              1.00
  JK-R1                PUMP      1000.00     0  00:00              1.00
  JK-R2                PUMP      1000.00     0  02:00              1.00
  JK-S                 PUMP       300.00     0  00:00              1.00
  XR-1                 PUMP        95.00     0  00:10              1.00
  XR-2                 PUMP        95.00     0  00:29              1.00
  XR-3                 PUMP         0.00     0  00:00              0.00
  XR-4                 PUMP         0.00     0  00:00              0.00
  
  
  ***************************
  Flow Classification Summary
  ***************************
  
  -------------------------------------------------------------------------------------
                      Adjusted    ---------- Fraction of Time in Flow Class ---------- 
                       /Actual         Up    Down  Sub   Sup   Up    Down  Norm  Inlet 
  Conduit               Length    Dry  Dry   Dry   Crit  Crit  Crit  Crit  Ltd   Ctrl  
  -------------------------------------------------------------------------------------
  1                       1.00   0.00  0.00  0.00  0.00  1.00  0.00  0.00  0.41  0.00
  HS02004478WS02006287    1.00   0.07  0.00  0.00  0.66  0.27  0.00  0.00  0.51  0.00
  HS02004479HS02004480    1.00   0.02  0.00  0.00  0.98  0.00  0.00  0.00  0.17  0.00
  HS02004480HS02004478    1.00   0.06  0.00  0.00  0.57  0.00  0.00  0.38  0.00  0.00
  HS02004770HS02004777    1.00   0.00  0.05  0.00  0.95  0.00  0.00  0.00  0.05  0.00
  HS02004777HS02004785    1.00   0.00  0.00  0.00  1.00  0.00  0.00  0.00  0.19  0.00
  HS02004785HS02004788    1.00   0.00  0.00  0.00  1.00  0.00  0.00  0.00  0.00  0.00
  HS02004788HS02004792    1.00   0.00  0.00  0.00  0.99  0.01  0.00  0.00  0.91  0.00
  HS02004792HS02004799    1.00   0.00  0.00  0.00  0.99  0.01  0.00  0.00  0.87  0.00
  HS02004799HS02004480    1.00   0.00  0.02  0.00  0.93  0.00  0.05  0.00  0.00  0.00
  HS02004802HS02004478    1.00   0.06  0.00  0.00  0.94  0.00  0.00  0.00  0.03  0.00
  HS02004807HS02004802    1.00   0.05  0.00  0.00  0.94  0.00  0.00  0.01  0.01  0.00
  HS02004817HS02004807    1.00   0.00  0.05  0.00  0.95  0.00  0.00  0.00  0.01  0.00
  HS02004817HS02004824    1.00   0.00  0.00  0.00  1.00  0.00  0.00  0.00  0.83  0.00
  HS02004824HS02004830    1.00   0.00  0.00  0.00  1.00  0.00  0.00  0.00  0.01  0.00
  HS02004830HS02004837    1.00   0.00  0.00  0.00  1.00  0.00  0.00  0.00  0.89  0.00
  HS02004837HS02004842    1.00   0.00  0.00  0.00  0.99  0.01  0.00  0.00  0.14  0.00
  HS02004842HS02004848    1.00   0.00  0.05  0.00  0.94  0.00  0.00  0.00  0.47  0.00
  HS02004848HS02004852    1.00   0.06  0.00  0.00  0.94  0.00  0.00  0.00  0.62  0.00
  HS02004852HS02004856    1.00   0.05  0.01  0.00  0.94  0.00  0.00  0.00  0.63  0.00
  HS02004856HS02004862    1.00   0.00  0.08  0.00  0.92  0.00  0.00  0.00  0.67  0.00
  HS02004862HS02004870    1.00   0.00  0.00  0.00  1.00  0.00  0.00  0.00  0.06  0.00
  HS02004870HS02004876    1.00   0.01  0.00  0.00  0.99  0.00  0.00  0.00  0.85  0.00
  HS02004876HS02004881    1.00   0.01  0.00  0.00  0.75  0.24  0.00  0.00  0.00  0.00
  HS02004881HS02006253    1.00   0.03  0.00  0.00  0.86  0.00  0.00  0.11  0.63  0.00
  HS02004901HS02004770    1.00   0.05  0.00  0.00  0.95  0.00  0.00  0.00  0.01  0.00
  WS02001211WS02001212    1.00   0.00  0.02  0.00  0.98  0.00  0.00  0.00  0.00  0.00
  WS02001212WS02001213    1.00   0.02  0.00  0.00  0.84  0.00  0.14  0.00  0.00  0.00
  WS02001213WS02003059    1.00   0.00  0.01  0.00  0.99  0.00  0.00  0.00  0.00  0.00
  WS02003059WS02003060    1.00   0.00  0.00  0.00  1.00  0.00  0.00  0.00  0.04  0.00
  WS02003060WS02003069    1.00   0.00  0.00  0.00  0.98  0.02  0.00  0.00  0.25  0.00
  WS02003066WSF200        1.00   0.14  0.00  0.00  0.00  0.86  0.00  0.00  0.37  0.00
  WS02003067WS02003066    1.00   0.13  0.01  0.00  0.86  0.00  0.00  0.00  0.00  0.00
  WS02003069WS02003072    1.00   0.00  0.00  0.00  1.00  0.00  0.00  0.00  0.29  0.00
  WS02003072WS02003073    1.00   0.00  0.00  0.00  0.00  0.00  0.00  1.00  0.00  0.00
  WS02004138WS02004139    1.00   0.01  0.00  0.00  0.98  0.00  0.00  0.00  0.97  0.00
  WS02004139WS02001211    1.00   0.00  0.01  0.00  0.99  0.00  0.00  0.00  0.01  0.00
  WS02004401WS02004402    1.00   0.02  0.00  0.00  0.98  0.00  0.00  0.00  0.04  0.00
  WS02004402WS02004403    1.00   0.03  0.00  0.00  0.97  0.00  0.00  0.00  0.00  0.00
  WS02004403WS02004404    1.00   0.00  0.03  0.00  0.97  0.00  0.00  0.00  0.04  0.00
  WS02004404WS02004405    1.00   0.00  0.00  0.00  1.00  0.00  0.00  0.00  0.00  0.00
  WS02004405WS02004406    1.00   0.00  0.00  0.00  1.00  0.00  0.00  0.00  0.04  0.00
  WS02004406WS02004407    1.00   0.00  0.10  0.00  0.90  0.00  0.00  0.00  0.00  0.00
  WS02004407WS02004409    1.00   0.10  0.00  0.00  0.87  0.03  0.00  0.00  0.61  0.00
  WS02004409WS02004410    1.00   0.10  0.00  0.00  0.90  0.00  0.00  0.00  0.00  0.00
  WS02004410WS02004411    1.00   0.10  0.00  0.00  0.90  0.00  0.00  0.00  0.00  0.00
  WS02004411WS02004412    1.00   0.10  0.00  0.00  0.90  0.00  0.00  0.00  0.00  0.00
  WS02004412WS02004413    1.00   0.11  0.00  0.00  0.89  0.01  0.00  0.00  0.00  0.00
  WS02004413WS02003067    1.00   0.11  0.02  0.00  0.00  0.00  0.87  0.00  0.00  0.00
  WS02006109WS02006110    1.00   0.00  0.01  0.00  0.99  0.00  0.00  0.00  0.00  0.00
  WS02006110WS02006113    1.00   0.01  0.01  0.00  0.99  0.00  0.00  0.00  0.00  0.00
  WS02006111WS02006112    1.00   0.02  0.00  0.00  0.98  0.00  0.00  0.00  0.73  0.00
  WS02006112WS02006115    1.00   0.02  0.01  0.00  0.97  0.00  0.00  0.00  0.00  0.00
  WS02006113WS02006111    1.00   0.01  0.00  0.00  0.25  0.73  0.00  0.00  0.13  0.00
  WS02006115WS02006116    1.00   0.02  0.00  0.00  0.94  0.00  0.00  0.03  0.01  0.00
  WS02006116WS02004401    1.00   0.02  0.00  0.00  0.98  0.00  0.00  0.00  0.01  0.00
  WS02006228WS02006109    1.00   0.00  0.00  0.00  1.00  0.00  0.00  0.00  0.00  0.00
  WS02006229WS02006228    1.00   0.00  0.00  0.00  0.99  0.00  0.00  0.01  0.00  0.00
  WS02006230WS02006229    1.00   0.00  0.00  0.00  0.99  0.00  0.00  0.01  0.02  0.00
  WS02006231WS02006230    1.00   0.00  0.00  0.00  0.90  0.00  0.09  0.00  0.00  0.00
  WS02006232WS02006231    1.00   0.00  0.00  0.00  0.99  0.00  0.00  0.00  0.00  0.00
  WS02006234WS02006232    1.00   0.00  0.00  0.00  1.00  0.00  0.00  0.00  0.17  0.00
  WS02006235WS02006234    1.00   0.00  0.00  0.00  0.92  0.00  0.08  0.00  0.00  0.00
  WS02006238WS02006235    1.00   0.00  0.00  0.00  1.00  0.00  0.00  0.00  0.00  0.00
  WS02006239WS02006238    1.00   0.00  0.00  0.00  1.00  0.00  0.00  0.00  0.08  0.00
  WS02006240WS02006239    1.00   0.00  0.00  0.00  0.90  0.00  0.00  0.10  0.01  0.00
  WS02006242WS02006240    1.00   0.00  0.00  0.00  1.00  0.00  0.00  0.00  0.00  0.00
  WS02006243WS02006242    1.00   0.01  0.00  0.00  0.99  0.00  0.00  0.00  0.27  0.00
  WS02006245WS02006243    1.00   0.01  0.01  0.00  0.89  0.00  0.00  0.09  0.00  0.00
  WS02006247WS02006245    1.00   0.01  0.00  0.00  0.95  0.00  0.00  0.04  0.00  0.00
  WS02006248WS02006247    1.00   0.01  0.00  0.00  0.97  0.00  0.00  0.02  0.11  0.00
  WS02006249WS02006248    1.00   0.00  0.01  0.00  0.89  0.00  0.10  0.00  0.00  0.00
  WS02006251WS02006249    1.00   0.00  0.00  0.00  1.00  0.00  0.00  0.00  0.25  0.00
  WS02006252WS02006251    1.00   0.14  0.00  0.00  0.40  0.00  0.46  0.00  0.00  0.00
  WS02006253WS02006251    1.00   0.03  0.02  0.00  0.94  0.00  0.01  0.00  0.00  0.00
  WS02006256WS02006235    1.00   0.00  0.00  0.00  1.00  0.00  0.00  0.00  0.00  0.00
  WS02006280WS02006229    1.00   0.06  0.00  0.00  0.18  0.05  0.00  0.71  0.00  0.00
  WS02006284WS02006280    1.00   0.06  0.00  0.00  0.13  0.01  0.00  0.80  0.00  0.00
  WS02006287WS02006284    1.00   0.05  0.03  0.00  0.53  0.40  0.00  0.00  0.60  0.00
  WSF200WS02003060        1.00   0.00  0.14  0.00  0.01  0.85  0.00  0.00  0.00  0.00
  YS02001580YS02001583    1.00   0.17  0.53  0.00  0.30  0.00  0.00  0.00  0.58  0.00
  YS02001583YS02001586    1.00   0.21  0.41  0.00  0.38  0.00  0.00  0.00  0.58  0.00
  YS02001586YS02001590    1.00   0.05  0.00  0.00  0.56  0.04  0.00  0.35  0.45  0.00
  YS02001590YS02001593    1.00   0.05  0.00  0.00  0.17  0.00  0.77  0.00  0.00  0.00
  YS02001593YS02001596    1.00   0.06  0.00  0.00  0.33  0.04  0.00  0.58  0.14  0.00
  YS02001596YS02001600    1.00   0.06  0.00  0.00  0.44  0.01  0.00  0.49  0.05  0.00
  YS02001600YS02001601    1.00   0.06  0.00  0.00  0.94  0.00  0.00  0.00  0.40  0.00
  YS02001601YS02001602    1.00   0.05  0.01  0.00  0.94  0.00  0.00  0.00  0.00  0.00
  YS02001602YS02001605    1.00   0.06  0.00  0.00  0.94  0.00  0.00  0.00  0.00  0.00
  YS02001605YS02001607    1.00   0.06  0.00  0.00  0.94  0.00  0.00  0.00  0.00  0.00
  YS02001607YS02001610    1.00   0.06  0.00  0.00  0.94  0.00  0.00  0.00  0.03  0.00
  YS02001610YS02001613    1.00   0.06  0.00  0.00  0.94  0.00  0.00  0.00  0.02  0.00
  YS02001613YS02001616    1.00   0.05  0.00  0.00  0.95  0.00  0.00  0.00  0.01  0.00
  YS02001616YS02001619    1.00   0.05  0.00  0.00  0.95  0.00  0.00  0.00  0.00  0.00
  YS02001619YS02001622    1.00   0.05  0.00  0.00  0.95  0.00  0.00  0.00  0.07  0.00
  YS02001622YS02001625    1.00   0.05  0.00  0.00  0.95  0.00  0.00  0.00  0.09  0.00
  YS02001625YS02001629    1.00   0.06  0.03  0.00  0.50  0.00  0.41  0.00  0.00  0.00
  YS02001629YS02163301    1.00   0.07  0.01  0.00  0.92  0.00  0.00  0.00  0.00  0.00
  YS02001633YS02163601    1.00   0.00  0.01  0.00  0.99  0.00  0.00  0.00  0.21  0.00
  YS02001641YS02001644    1.00   0.00  0.01  0.00  0.99  0.00  0.00  0.00  0.00  0.00
  YS02001644YS02001647    1.00   0.00  0.09  0.00  0.91  0.00  0.00  0.00  0.00  0.00
  YS02001647YS02001649    1.00   0.00  0.09  0.00  0.91  0.00  0.00  0.00  0.14  0.00
  YS02001649YS02001757    1.00   0.00  0.00  0.00  0.96  0.03  0.00  0.00  0.30  0.00
  YS02001652YS02001649    1.00   0.00  0.00  0.00  0.97  0.03  0.00  0.00  0.33  0.00
  YS02001655YS02001652    1.00   0.00  0.00  0.00  0.63  0.02  0.00  0.35  0.10  0.00
  YS02001658YS02001655    1.00   0.00  0.06  0.00  0.82  0.12  0.00  0.00  0.36  0.00
  YS02001661YS02001658    1.00   0.06  0.00  0.00  0.76  0.18  0.00  0.00  0.43  0.00
  YS02001664YS02001661    1.00   0.05  0.00  0.00  0.87  0.07  0.00  0.00  0.83  0.00
  YS02001745YS02001748    1.00   0.00  0.00  0.00  0.41  0.01  0.00  0.59  0.09  0.00
  YS02001748YS02001751    1.00   0.00  0.00  0.00  0.89  0.11  0.00  0.00  0.47  0.00
  YS02001751YS02001754    1.00   0.00  0.00  0.00  0.57  0.01  0.00  0.42  0.10  0.00
  YS02001754YS02001757    1.00   0.00  0.00  0.00  1.00  0.00  0.00  0.00  0.41  0.00
  YS02001757CaochengTiaoxuchi    1.00   0.00  0.00  0.00  1.00  0.00  0.00  0.00  0.11  0.00
  YS02001759YS02001757    1.00   0.00  0.00  0.00  1.00  0.00  0.00  0.00  0.24  0.00
  YS02001762YS02001759    1.00   0.00  0.00  0.00  1.00  0.00  0.00  0.00  0.08  0.00
  YS02001765YS02001762    1.00   0.00  0.00  0.00  1.00  0.00  0.00  0.00  0.28  0.00
  YS02001767YS02001765    1.00   0.00  0.00  0.00  1.00  0.00  0.00  0.00  0.01  0.00
  YS02001770YS02001767    1.00   0.00  0.00  0.00  1.00  0.00  0.00  0.00  0.00  0.00
  YS02001774YS02001770    1.00   0.00  0.06  0.00  0.94  0.00  0.00  0.00  0.06  0.00
  YS02001779YS02001774    1.00   0.00  0.00  0.00  1.00  0.00  0.00  0.00  0.39  0.00
  YS02001783YS02001784    1.00   0.00  0.10  0.00  0.90  0.00  0.00  0.00  0.43  0.00
  YS02001784YS02001785    1.00   0.00  0.00  0.00  1.00  0.00  0.00  0.00  0.26  0.00
  YS02001786YS02001788    1.00   0.00  0.00  0.00  0.66  0.34  0.00  0.00  0.00  0.00
  YS02001788YS02001790    1.00   0.00  0.00  0.00  0.14  0.86  0.00  0.00  0.82  0.00
  YS02001790YS02001791    1.00   0.00  0.00  0.00  0.01  0.99  0.00  0.00  0.19  0.00
  YS02001791YS02001793    1.00   0.00  0.00  0.00  0.00  1.00  0.00  0.00  0.01  0.00
  YS02001793JiankangQianchi    1.00   0.00  0.00  0.00  0.12  0.87  0.00  0.00  0.13  0.00
  YS02001882YS02001884    1.00   0.07  0.01  0.00  0.93  0.00  0.00  0.00  0.00  0.00
  YS02001884YS02001887    1.00   0.03  0.02  0.00  0.95  0.00  0.00  0.00  0.00  0.00
  YS02001887YS02001890    1.00   0.00  0.00  0.00  0.98  0.00  0.02  0.00  0.00  0.00
  YS02001890YS02001895    1.00   0.00  0.08  0.00  0.92  0.00  0.00  0.00  0.00  0.00
  YS02001895YS02001898    1.00   0.08  0.00  0.00  0.90  0.00  0.02  0.00  0.00  0.00
  YS02001898YS02001901    1.00   0.08  0.01  0.00  0.92  0.00  0.00  0.00  0.02  0.00
  YS02001901YS02001904    1.00   0.08  0.00  0.00  0.92  0.00  0.00  0.00  0.00  0.00
  YS02001904YS02001907    1.00   0.00  0.07  0.00  0.92  0.00  0.00  0.00  0.00  0.00
  YS02001907YS02006553    1.00   0.00  0.01  0.00  0.98  0.00  0.00  0.00  0.00  0.00
  YS02001910YS02001907    1.00   0.00  0.00  0.00  0.98  0.00  0.00  0.02  0.17  0.00
  YS02001915YS02001910    1.00   0.00  0.00  0.00  0.99  0.01  0.00  0.00  0.24  0.00
  YS02001918YS02001915    1.00   0.00  0.01  0.00  0.99  0.01  0.00  0.00  0.71  0.00
  YS02001920YS02001918    1.00   0.00  0.01  0.00  0.99  0.00  0.00  0.00  0.00  0.00
  YS02001923YS02001920    1.00   0.00  0.00  0.00  1.00  0.00  0.00  0.00  0.93  0.00
  YS02001926YS02001923    1.00   0.00  0.03  0.00  0.07  0.00  0.90  0.00  0.00  0.00
  YS02001929YS02001926    1.00   0.00  0.05  0.00  0.95  0.00  0.00  0.00  0.79  0.00
  YS02006553YS02006556    1.00   0.01  0.00  0.00  0.99  0.00  0.00  0.00  0.04  0.00
  YS02006556YS02006558    1.00   0.00  0.00  0.00  1.00  0.00  0.00  0.00  0.00  0.00
  YS02006558YS02006561    1.00   0.09  0.00  0.00  0.06  0.84  0.00  0.00  0.24  0.00
  YS02006561YS02001783    1.00   0.09  0.00  0.00  0.11  0.80  0.00  0.00  0.61  0.00
  YS02163301YS02001633    1.00   0.00  0.07  0.00  0.93  0.00  0.00  0.00  0.00  0.00
  YS02163601YS02164001    1.00   0.00  0.04  0.00  0.96  0.00  0.00  0.00  0.00  0.00
  YS02164001YS02001641    1.00   0.01  0.03  0.00  0.96  0.00  0.00  0.00  0.08  0.00
  YSB1154YSB6556          1.00   0.05  0.00  0.00  0.95  0.00  0.00  0.00  0.03  0.00
  YSB1171HS02004479       1.00   0.02  0.00  0.00  0.97  0.00  0.00  0.00  0.15  0.00
  YSB1174YSB1171          1.00   0.03  0.02  0.00  0.96  0.00  0.00  0.00  0.00  0.00
  YSB6556YSB1171          1.00   0.02  0.03  0.00  0.95  0.00  0.00  0.00  0.00  0.00
  
  
  *************************
  Conduit Surcharge Summary
  *************************
  
  ----------------------------------------------------------------------------
                                                           Hours        Hours 
                         --------- Hours Full --------   Above Full   Capacity
  Conduit                Both Ends  Upstream  Dnstream   Normal Flow   Limited
  ----------------------------------------------------------------------------
  HS02004478WS02006287        0.23      0.23      0.38      0.01         0.01
  HS02004479HS02004480        0.40      0.40      0.41      0.01         0.01
  HS02004480HS02004478        0.33      0.39      0.33      1.28         0.33
  HS02004770HS02004777        0.31      0.31      0.31      0.12         0.08
  HS02004777HS02004785        0.27      0.27      0.31      0.01         0.01
  HS02004785HS02004788        0.26      0.27      0.26      0.97         0.25
  HS02004788HS02004792        0.26      0.26      0.36      0.01         0.01
  HS02004792HS02004799        0.36      0.36      0.45      0.01         0.01
  HS02004799HS02004480        0.39      0.39      0.45      0.52         0.01
  HS02004802HS02004478        0.34      0.34      0.40      0.01         0.01
  HS02004807HS02004802        0.38      0.38      0.39      0.01         0.01
  HS02004817HS02004807        0.38      0.38      0.81      0.01         0.01
  HS02004817HS02004824        0.25      0.25      0.81      0.01         0.01
  HS02004824HS02004830        0.22      0.22      0.25      0.01         0.01
  HS02004830HS02004837        0.18      0.18      0.22      0.01         0.01
  HS02004837HS02004842        0.18      0.18      0.31      0.01         0.01
  HS02004842HS02004848        0.12      0.12      0.31      0.01         0.01
  HS02004848HS02004852        0.12      0.12      0.15      0.04         0.01
  HS02004852HS02004856        0.15      0.15      0.16      0.03         0.01
  HS02004856HS02004862        0.12      0.12      0.17      0.02         0.01
  HS02004862HS02004870        0.17      0.17      0.18      0.03         0.01
  HS02004870HS02004876        0.18      0.18      0.23      0.01         0.01
  HS02004876HS02004881        0.20      0.23      0.20      1.00         0.20
  HS02004881HS02006253        0.20      0.20      1.86      0.01         0.01
  HS02004901HS02004770        0.31      0.31      0.32      0.01         0.01
  WS02003072WS02003073        0.01      0.01      0.01      4.06         0.01
  WS02004401WS02004402        1.18      1.18      1.21      0.96         0.91
  WS02004402WS02004403        1.21      1.21      1.22      1.17         1.16
  WS02004403WS02004404        1.22      1.22      1.47      0.01         0.01
  WS02004404WS02004405        1.42      1.47      1.42      4.26         1.42
  WS02004405WS02004406        1.39      1.42      1.39      1.74         1.39
  WS02004406WS02004407        0.01      0.01      1.39      0.01         0.01
  WS02004407WS02004409        0.01      0.01      0.59      0.01         0.01
  WS02004409WS02004410        0.58      0.59      0.58      1.02         0.58
  WS02004410WS02004411        0.55      0.58      0.55      1.11         0.55
  WS02004411WS02004412        0.47      0.55      0.47      1.16         0.47
  WS02004412WS02004413        0.47      0.47      0.91      0.01         0.01
  WS02004413WS02003067        0.01      0.01      0.91      0.01         0.01
  WS02006109WS02006110        1.66      1.66      4.20      1.67         0.01
  WS02006110WS02006113        0.87      0.87      4.19      0.23         0.01
  WS02006111WS02006112        0.84      0.84      4.19      0.01         0.01
  WS02006112WS02006115        1.04      1.04      1.84      0.01         0.01
  WS02006113WS02006111        0.86      0.87      0.86      0.96         0.85
  WS02006115WS02006116        1.06      1.06      1.06      1.02         0.99
  WS02006116WS02004401        1.17      1.17      1.18      1.13         1.11
  WS02006228WS02006109        4.19      4.20      4.19      4.28         4.19
  WS02006229WS02006228        4.19      4.20      4.19      4.24         4.19
  WS02006230WS02006229        4.21      4.21      4.21      4.26         3.51
  WS02006231WS02006230        1.47      1.47      1.70      4.17         0.62
  WS02006232WS02006231        1.66      1.66      4.14      0.01         0.09
  WS02006234WS02006232        4.12      4.12      4.14      0.01         0.01
  WS02006235WS02006234        3.50      3.50      4.12      4.05         0.61
  WS02006238WS02006235        4.12      4.12      4.12      0.01         0.21
  WS02006239WS02006238        4.12      4.12      4.12      3.65         3.14
  WS02006240WS02006239        4.12      4.12      4.12      3.64         3.12
  WS02006242WS02006240        4.12      4.12      4.12      3.72         0.58
  WS02006243WS02006242        4.12      4.12      4.12      0.01         0.01
  WS02006245WS02006243        4.12      4.12      4.12      3.07         3.06
  WS02006247WS02006245        4.12      4.12      4.12      3.94         3.35
  WS02006248WS02006247        4.12      4.12      4.12      0.01         0.01
  WS02006249WS02006248        4.12      4.12      4.12      3.22         0.01
  WS02006251WS02006249        4.12      4.14      4.12      4.15         4.12
  WS02006252WS02006251        4.16      4.16      4.16      3.82         0.01
  WS02006253WS02006251        4.13      4.14      4.14      0.50         0.01
  WS02006256WS02006235        4.22      4.23      4.65      0.30         0.01
  WS02006280WS02006229        0.49      0.49      0.59      0.01         0.01
  WS02006284WS02006280        0.41      0.41      0.47      0.01         0.01
  WS02006287WS02006284        0.33      0.33      0.41      0.02         0.02
  YS02001580YS02001583        0.27      0.27      0.32      0.01         0.01
  YS02001583YS02001586        0.28      0.28      0.49      0.01         0.01
  YS02001586YS02001590        0.50      0.50      0.56      0.01         0.01
  YS02001590YS02001593        0.57      0.57      0.58      0.56         0.01
  YS02001593YS02001596        0.58      0.58      0.69      0.01         0.01
  YS02001596YS02001600        0.77      0.77      1.11      0.01         0.01
  YS02001600YS02001601        1.30      1.30      1.79      0.01         0.01
  YS02001601YS02001602        1.75      1.75      1.81      0.71         0.01
  YS02001602YS02001605        1.73      1.73      1.75      1.81         0.06
  YS02001605YS02001607        1.71      1.73      1.73      0.92         0.85
  YS02001607YS02001610        0.73      0.73      0.91      0.01         0.01
  YS02001610YS02001613        0.75      0.75      0.91      0.01         0.01
  YS02001613YS02001616        0.63      0.63      0.75      0.01         0.01
  YS02001616YS02001619        0.61      0.61      0.63      0.01         0.01
  YS02001619YS02001622        0.61      0.61      0.63      0.45         0.35
  YS02001622YS02001625        0.63      0.63      1.55      0.01         0.01
  YS02001625YS02001629        0.55      0.55      1.55      0.01         0.01
  YS02001629YS02163301        1.60      1.60      1.61      0.05         0.07
  YS02001633YS02163601        1.64      1.64      1.68      0.14         0.20
  YS02001641YS02001644        1.63      1.64      1.63      1.00         0.89
  YS02001644YS02001647        1.47      1.47      1.63      0.01         0.01
  YS02001647YS02001649        1.47      1.47      1.61      0.01         0.01
  YS02001649YS02001757        1.61      1.61      1.80      0.09         0.10
  YS02001652YS02001649        1.47      1.47      1.61      0.01         0.01
  YS02001655YS02001652        0.28      0.28      1.40      0.01         0.01
  YS02001658YS02001655        0.01      0.01      0.28      0.01         0.01
  YS02001661YS02001658        0.01      0.01      0.01      0.01         0.01
  YS02001748YS02001751        0.01      0.01      0.07      0.01         0.01
  YS02001751YS02001754        0.07      0.07      1.28      0.01         0.01
  YS02001754YS02001757        1.44      1.44      1.80      0.01         0.01
  YS02001757CaochengTiaoxuchi        1.80      1.80      3.77      0.14         0.13
  YS02001759YS02001757        1.61      1.61      1.80      0.01         0.01
  YS02001762YS02001759        1.59      1.59      1.61      0.01         0.01
  YS02001765YS02001762        1.56      1.56      1.59      0.01         0.01
  YS02001767YS02001765        1.53      1.53      1.56      0.01         0.01
  YS02001770YS02001767        1.53      1.53      1.53      0.32         0.41
  YS02001774YS02001770        1.51      1.51      1.57      0.01         0.01
  YS02001779YS02001774        1.16      1.16      1.57      0.01         0.01
  YS02001783YS02001784        0.30      0.32      0.30      0.44         0.30
  YS02001784YS02001785        0.19      0.30      0.19      0.61         0.19
  YS02001786YS02001788        0.01      0.19      0.01      0.52         0.01
  YS02001790YS02001791        0.01      0.01      0.01      0.29         0.01
  YS02001793JiankangQianchi        0.01      0.01      0.43      0.01         0.01
  YS02001882YS02001884        0.27      0.27      0.28      0.01         0.01
  YS02001884YS02001887        0.31      0.31      0.32      0.01         0.01
  YS02001887YS02001890        0.33      0.33      0.34      0.01         0.01
  YS02001890YS02001895        0.26      0.26      0.35      0.01         0.01
  YS02001895YS02001898        0.25      0.25      0.26      0.01         0.01
  YS02001898YS02001901        0.26      0.26      0.30      0.01         0.01
  YS02001901YS02001904        0.29      0.29      0.30      0.01         0.01
  YS02001904YS02001907        0.29      0.29      0.50      0.01         0.01
  YS02001907YS02006553        0.61      0.61      0.67      0.01         0.01
  YS02001910YS02001907        0.35      0.35      0.49      0.01         0.01
  YS02001915YS02001910        0.27      0.27      0.35      0.01         0.01
  YS02001918YS02001915        0.18      0.18      0.27      0.01         0.01
  YS02001920YS02001918        0.18      0.18      0.19      0.01         0.01
  YS02001923YS02001920        0.11      0.11      0.19      0.01         0.01
  YS02001926YS02001923        0.01      0.01      0.01      0.01         0.01
  YS02001929YS02001926        0.01      0.01      0.01      0.01         0.01
  YS02006553YS02006556        0.42      0.42      0.50      0.01         0.01
  YS02006556YS02006558        0.46      0.46      0.51      0.01         0.01
  YS02006558YS02006561        0.21      0.42      0.21      0.58         0.21
  YS02006561YS02001783        0.14      0.14      0.32      0.01         0.01
  YS02163301YS02001633        1.61      1.61      1.65      0.01         0.01
  YS02163601YS02164001        1.63      1.63      1.68      0.06         0.01
  YS02164001YS02001641        1.63      1.63      1.64      0.53         0.48
  YSB1154YSB6556              0.44      0.44      0.54      0.01         0.01
  YSB1171HS02004479           0.35      0.35      0.55      0.01         0.01
  YSB1174YSB1171              0.48      0.48      0.73      0.01         0.01
  YSB6556YSB1171              0.44      0.44      0.86      0.01         0.01
  
  
  ***************
  Pumping Summary
  ***************
  
  ---------------------------------------------------------------------------------------------------------
                                                  Min       Avg       Max     Total     Power    % Time Off
                        Percent   Number of      Flow      Flow      Flow    Volume     Usage    Pump Curve
  Pump                 Utilized   Start-Ups       LPS       LPS       LPS  10^6 ltr     Kw-hr    Low   High
  ---------------------------------------------------------------------------------------------------------
  CC-R1                    5.56           2      0.00    683.00    683.00     0.821     16.74    0.0   61.0
  CC-R2                    2.78           1      0.00    683.00    683.00     0.411      8.32    0.0   31.2
  CC-S1                   63.74           2      0.00    200.00    200.00     2.754     13.24    0.0   31.5
  CC-S2                   63.74           2      0.00    200.00    200.00     2.754     13.24    0.0   31.5
  JK-R1                   88.88           4      0.00    152.37   1000.00     2.054      8.19    0.0    0.0
  JK-R2                   27.83           4      0.00    339.96   1000.00     1.106      4.89    0.0    0.0
  JK-S                    27.85           5      0.00    134.58    300.00     0.430      8.28    0.0    0.0
  XR-1                    97.20           1      0.00     95.00     95.00     1.995      8.82    0.0    0.0
  XR-2                    91.96           1      0.00     95.00     95.00     1.887      7.99    0.0    0.0
  XR-3                     0.00           0      0.00      0.00      0.00     0.000      0.00    0.0    0.0
  XR-4                     0.00           0      0.00      0.00      0.00     0.000      0.00    0.0    0.0
  

  Analysis begun on:  Sat Aug 27 11:16:49 2022
  Analysis ended on:  Sat Aug 27 11:17:05 2022
  Total elapsed time: 00:00:16