
  EPA STORM WATER MANAGEMENT MODEL - VERSION 5.1 (Build 5.3.0.dev0)
  --------------------------------------------------------------

  WARNING 04: minimum elevation drop used for Conduit WS02004404WS02004405
  WARNING 03: negative offset ignored for Link YS02001904YS02001907
  
  *********************************************************
  NOTE: The summary statistics displayed in this report are
  based on results found at every computational time step,  
  not just on results from each reporting time step.
  *********************************************************
  
  ****************
  Analysis Options
  ****************
  Flow Units ............... LPS
  Process Models:
    Rainfall/Runoff ........ YES
    RDII ................... NO
    Snowmelt ............... NO
    Groundwater ............ NO
    Flow Routing ........... YES
    Ponding Allowed ........ NO
    Water Quality .......... NO
  Infiltration Method ...... HORTON
  Flow Routing Method ...... DYNWAVE
  Surcharge Method ......... EXTRAN
  Starting Date ............ 01/01/2000 00:00:00
  Ending Date .............. 01/01/2000 06:00:00
  Antecedent Dry Days ...... 8.0
  Report Time Step ......... 00:01:00
  Wet Time Step ............ 00:01:00
  Dry Time Step ............ 00:01:00
  Routing Time Step ........ 30.00 sec
  Variable Time Step ....... YES
  Maximum Trials ........... 8
  Number of Threads ........ 4
  Head Tolerance ........... 0.001500 m
  
  
  **************************        Volume         Depth
  Runoff Quantity Continuity     hectare-m            mm
  **************************     ---------       -------
  Total Precipitation ......         4.454        73.526
  Evaporation Loss .........         0.000         0.000
  Infiltration Loss ........         0.251         4.150
  Surface Runoff ...........         4.137        68.294
  Final Storage ............         0.066         1.093
  Continuity Error (%) .....        -0.015
  
  
  **************************        Volume        Volume
  Flow Routing Continuity        hectare-m      10^6 ltr
  **************************     ---------     ---------
  Dry Weather Inflow .......         0.472         4.722
  Wet Weather Inflow .......         4.136        41.364
  Groundwater Inflow .......         0.000         0.000
  RDII Inflow ..............         0.000         0.000
  External Inflow ..........         0.078         0.784
  External Outflow .........         3.143        31.426
  Flooding Loss ............         1.874        18.738
  Evaporation Loss .........         0.000         0.000
  Exfiltration Loss ........         0.000         0.000
  Initial Stored Volume ....         0.303         3.031
  Final Stored Volume ......         0.171         1.709
  Continuity Error (%) .....        -3.951
  
  
  *************************
  Highest Continuity Errors
  *************************
  Node JK-storage (-26.68%)
  Node YS02001884 (5.44%)
  Node CC-storage (-4.69%)
  Node YS02001583 (-3.04%)
  Node HS02004842 (1.45%)
  
  
  ***************************
  Time-Step Critical Elements
  ***************************
  Link WS02006252WS02006251 (54.84%)
  Link WS02006238WS02006235 (11.66%)
  Link WS02006280WS02006229 (8.98%)
  Link YS02001793JiankangQianchi (7.80%)
  Link YS02001791YS02001793 (3.27%)
  
  
  ********************************
  Highest Flow Instability Indexes
  ********************************
  Link WS02006113WS02006111 (37)
  Link WS02006111WS02006112 (23)
  Link WS02006238WS02006235 (21)
  Link WS02004404WS02004405 (20)
  Link WS02006256WS02006235 (18)
  
  
  *************************
  Routing Time Step Summary
  *************************
  Minimum Time Step           :     0.50 sec
  Average Time Step           :     1.41 sec
  Maximum Time Step           :    14.54 sec
  Percent in Steady State     :    -0.00
  Average Iterations per Step :     3.19
  Percent Not Converging      :    10.28
  
  
  ***************************
  Subcatchment Runoff Summary
  ***************************
  
  ------------------------------------------------------------------------------------------------------------------------------
                            Total      Total      Total      Total     Imperv       Perv      Total       Total     Peak  Runoff
                           Precip      Runon       Evap      Infil     Runoff     Runoff     Runoff      Runoff   Runoff   Coeff
  Subcatchment                 mm         mm         mm         mm         mm         mm         mm    10^6 ltr      LPS
  ------------------------------------------------------------------------------------------------------------------------------
  sub0                      73.53       0.00       0.00       1.03      67.12       4.12      71.24        0.06    31.68   0.969
  sub1                      73.53       0.00       0.00       1.77      64.13       6.31      70.44        0.47   238.67   0.958
  sub10                     73.53       0.00       0.00       1.25      66.30       4.64      70.94        0.78   401.80   0.965
  sub11                     73.53       0.00       0.00       1.23      66.34       4.66      71.00        0.83   434.68   0.966
  sub12                     73.53       0.00       0.00       1.99      62.77       7.57      70.34        0.61   336.07   0.957
  sub14                     73.53       0.00       0.00       1.40      65.60       5.22      70.82        0.67   351.44   0.963
  sub15                     73.53       0.00       0.00       5.54      50.46      16.52      66.97        1.15   579.46   0.911
  sub16                     73.53       0.00       0.00       5.72      48.34      18.55      66.89        0.70   373.13   0.910
  sub17                     73.53       0.00       0.00       5.58      49.05      17.95      67.01        0.57   304.45   0.911
  sub2                      73.53       0.00       0.00       7.93      45.35      19.28      64.63        0.60   270.10   0.879
  sub22                     73.53       0.00       0.00       8.41      41.11      23.21      64.31        4.06  1989.87   0.875
  sub23                     73.53       0.00       0.00       6.85      45.44      20.36      65.79        3.14  1599.63   0.895
  sub3                      73.53       0.00       0.00       8.16      45.27      18.59      63.86        1.44   595.15   0.869
  sub4                      73.53       0.00       0.00       1.99      63.80       6.10      69.90        1.46   636.95   0.951
  sub5                      73.53       0.00       0.00       1.09      67.01       4.06      71.07        0.81   409.16   0.967
  sub60                     73.53       0.00       0.00       1.88      63.47       6.94      70.41        0.93   492.03   0.958
  sub61                     73.53       0.00       0.00       2.73      59.87       9.77      69.63        1.28   684.52   0.947
  sub62                     73.53       0.00       0.00       1.25      66.29       4.63      70.92        1.94   990.85   0.965
  sub63                     73.53       0.00       0.00       5.08      51.21      16.25      67.46        1.53   802.63   0.917
  sub64                     73.53       0.00       0.00       2.56      61.21       8.47      69.68        1.67   833.12   0.948
  sub65                     73.53       0.00       0.00       2.22      62.62       7.34      69.96        1.93   939.69   0.952
  sub66                     73.53       0.00       0.00       6.31      51.00      15.02      66.01        3.08  1322.34   0.898
  sub67                     73.53       0.00       0.00       1.20      66.38       4.68      71.06        1.32   715.50   0.966
  sub68                     73.53       0.00       0.00       2.27      62.00       8.03      70.03        1.93  1006.90   0.952
  sub69                     73.53       0.00       0.00       2.06      62.29       8.97      71.26        2.64  1251.75   0.969
  sub7                      73.53       0.00       0.00       1.38      65.63       5.24      70.88        0.24   127.27   0.964
  sub70                     73.53       0.00       0.00       6.86      48.21      18.14      66.35        1.92   750.12   0.902
  sub71                     73.53       0.00       0.00       1.29      66.21       4.59      70.81        1.85   902.24   0.963
  sub72                     73.53       0.00       0.00       1.15      66.81       4.00      70.81        0.97   449.40   0.963
  sub8                      73.53       0.00       0.00       1.39      65.61       5.22      70.84        0.45   237.49   0.963
  sub9                      73.53       0.00       0.00       1.40      65.61       5.22      70.83        0.34   178.11   0.963
  
  
  ******************
  Node Depth Summary
  ******************
  
  ---------------------------------------------------------------------------------
                                 Average  Maximum  Maximum  Time of Max    Reported
                                   Depth    Depth      HGL   Occurrence   Max Depth
  Node                 Type       Meters   Meters   Meters  days hr:min      Meters
  ---------------------------------------------------------------------------------
  HS02004478           JUNCTION     0.25     1.58    10.81     0  02:22        1.58
  HS02004479           JUNCTION     0.33     1.70    10.90     0  02:12        1.66
  HS02004480           JUNCTION     0.30     1.67    10.91     0  02:12        1.63
  HS02004770           JUNCTION     0.30     1.42    11.25     0  02:07        1.42
  HS02004777           JUNCTION     0.32     1.48    11.28     0  02:07        1.45
  HS02004785           JUNCTION     0.21     1.46    11.36     0  02:07        1.34
  HS02004788           JUNCTION     0.18     1.34    11.24     0  02:24        1.34
  HS02004792           JUNCTION     0.24     1.60    11.12     0  02:11        1.60
  HS02004799           JUNCTION     0.36     1.76    10.97     0  02:12        1.76
  HS02004802           JUNCTION     0.35     1.80    10.93     0  02:24        1.79
  HS02004807           JUNCTION     0.32     1.92    11.09     0  02:21        1.92
  HS02004817           JUNCTION     0.62     2.39    11.24     0  02:24        2.38
  HS02004824           JUNCTION     0.19     1.98    11.38     0  02:24        1.97
  HS02004830           JUNCTION     0.19     1.99    11.46     0  02:12        1.98
  HS02004837           JUNCTION     0.16     1.94    11.52     0  02:12        1.93
  HS02004842           JUNCTION     0.45     2.22    11.49     0  02:11        2.22
  HS02004848           JUNCTION     0.14     1.89    11.50     0  02:12        1.89
  HS02004852           JUNCTION     0.14     1.91    11.42     0  02:24        1.90
  HS02004856           JUNCTION     0.20     1.96    11.39     0  02:24        1.94
  HS02004862           JUNCTION     0.16     1.94    11.33     0  02:24        1.93
  HS02004870           JUNCTION     0.15     1.92    11.21     0  02:24        1.91
  HS02004876           JUNCTION     0.20     2.00    11.03     0  02:24        1.99
  HS02004881           JUNCTION     0.13     1.75    10.78     0  02:24        1.74
  HS02004901           JUNCTION     0.30     1.42    11.24     0  02:07        1.42
  WS02001211           JUNCTION     0.64     0.81     5.65     0  02:27        0.81
  WS02001212           JUNCTION     0.38     0.57     5.64     0  02:27        0.57
  WS02001213           JUNCTION     0.61     0.87     5.63     0  02:27        0.87
  WS02003059           JUNCTION     0.68     0.94     5.63     0  02:26        0.94
  WS02003060           JUNCTION     0.41     0.69     5.62     0  02:26        0.69
  WS02003066           JUNCTION     0.25     0.46     6.01     0  02:25        0.46
  WS02003067           JUNCTION     0.59     0.89     6.21     0  02:25        0.89
  WS02003069           JUNCTION     0.46     0.78     5.37     0  02:26        0.78
  WS02003072           JUNCTION     0.52     0.81     5.19     0  02:27        0.81
  WS02003073           JUNCTION     0.31     0.52     4.58     0  02:27        0.52
  WS02004138           JUNCTION     0.13     0.14     7.39     0  00:32        0.14
  WS02004139           JUNCTION     0.58     0.75     5.66     0  02:28        0.75
  WS02004401           JUNCTION     0.84     1.87     7.87     0  02:24        1.86
  WS02004402           JUNCTION     0.86     1.82     7.78     0  02:24        1.80
  WS02004403           JUNCTION     0.86     1.74     7.67     0  02:24        1.73
  WS02004404           JUNCTION     0.92     1.74     7.59     0  02:24        1.74
  WS02004405           JUNCTION     0.91     1.69     7.54     0  02:24        1.69
  WS02004406           JUNCTION     0.90     1.58     7.41     0  02:24        1.57
  WS02004407           JUNCTION     0.31     0.94     7.25     0  02:25        0.94
  WS02004409           JUNCTION     0.61     1.39     7.16     0  02:25        1.38
  WS02004410           JUNCTION     0.61     1.30     7.02     0  02:25        1.29
  WS02004411           JUNCTION     0.61     1.21     6.89     0  02:24        1.20
  WS02004412           JUNCTION     0.61     1.11     6.75     0  02:24        1.11
  WS02004413           JUNCTION     0.74     1.15     6.62     0  02:24        1.14
  WS02006109           JUNCTION     1.09     2.64     9.26     0  02:08        2.64
  WS02006110           JUNCTION     1.02     2.40     8.98     0  02:24        2.39
  WS02006111           JUNCTION     0.47     1.75     8.46     0  02:24        1.74
  WS02006112           JUNCTION     1.07     2.39     8.27     0  02:24        2.38
  WS02006113           JUNCTION     0.58     1.83     8.73     0  02:24        1.82
  WS02006115           JUNCTION     0.77     1.97     8.11     0  02:24        1.96
  WS02006116           JUNCTION     0.84     1.97     8.01     0  02:24        1.95
  WS02006228           JUNCTION     1.15     3.03     9.68     0  02:12        3.02
  WS02006229           JUNCTION     1.17     3.23     9.92     0  02:12        3.22
  WS02006230           JUNCTION     1.09     2.65     9.39     0  02:01        2.65
  WS02006231           JUNCTION     0.80     2.19     9.31     0  02:45        2.19
  WS02006232           JUNCTION     0.90     2.18     9.22     0  02:01        2.18
  WS02006234           JUNCTION     0.78     1.96     9.12     0  01:58        1.96
  WS02006235           JUNCTION     0.79     1.95     9.12     0  02:40        1.93
  WS02006238           JUNCTION     0.81     1.96     9.10     0  02:40        1.93
  WS02006239           JUNCTION     0.75     1.81     9.02     0  02:40        1.78
  WS02006240           JUNCTION     0.69     1.87     9.16     0  01:30        1.62
  WS02006242           JUNCTION     0.73     1.55     8.82     0  01:30        1.55
  WS02006243           JUNCTION     0.61     1.48     8.90     0  01:30        1.36
  WS02006245           JUNCTION     0.58     1.30     8.79     0  03:10        1.26
  WS02006247           JUNCTION     0.59     1.26     8.76     0  03:10        1.22
  WS02006248           JUNCTION     0.53     1.10     8.69     0  01:31        1.10
  WS02006249           JUNCTION     0.55     1.09     8.69     0  01:31        1.09
  WS02006251           JUNCTION     0.64     2.15     9.82     0  02:10        2.13
  WS02006252           JUNCTION     0.45     1.50     9.74     0  00:00        1.50
  WS02006253           JUNCTION     0.72     3.19    10.83     0  01:32        3.03
  WS02006256           JUNCTION     1.10     2.35     9.28     0  01:20        2.35
  WS02006280           JUNCTION     0.33     1.75    10.02     0  02:12        1.73
  WS02006284           JUNCTION     0.59     1.95    10.35     0  02:26        1.94
  WS02006287           JUNCTION     0.32     1.74    10.69     0  02:22        1.73
  WSF200               JUNCTION     0.26     0.52     5.76     0  02:25        0.52
  YS02001580           JUNCTION     0.10     0.89     9.43     0  02:04        0.77
  YS02001583           JUNCTION     0.13     0.87     9.37     0  02:04        0.82
  YS02001586           JUNCTION     0.22     1.13     9.30     0  02:04        1.13
  YS02001590           JUNCTION     0.33     1.40     9.26     0  02:04        1.37
  YS02001593           JUNCTION     0.25     1.32     9.18     0  02:04        1.28
  YS02001596           JUNCTION     0.34     1.67     9.09     0  02:04        1.65
  YS02001600           JUNCTION     0.42     1.87     9.00     0  02:04        1.86
  YS02001601           JUNCTION     0.62     2.06     8.90     0  02:04        2.06
  YS02001602           JUNCTION     0.54     1.87     8.77     0  02:10        1.87
  YS02001605           JUNCTION     0.50     1.77     8.68     0  02:14        1.77
  YS02001607           JUNCTION     0.48     1.65     8.49     0  02:40        1.64
  YS02001610           JUNCTION     0.52     1.68     8.48     0  02:12        1.68
  YS02001613           JUNCTION     0.48     1.66     8.50     0  02:22        1.65
  YS02001616           JUNCTION     0.41     1.60     8.51     0  02:24        1.59
  YS02001619           JUNCTION     0.39     1.59     8.52     0  02:24        1.58
  YS02001622           JUNCTION     0.37     1.57     8.47     0  02:24        1.56
  YS02001625           JUNCTION     0.62     1.78     8.38     0  02:12        1.78
  YS02001629           JUNCTION     0.52     1.85     8.40     0  02:15        1.85
  YS02001633           JUNCTION     0.59     2.00     8.45     0  02:18        1.99
  YS02001641           JUNCTION     0.56     1.95     8.39     0  02:18        1.94
  YS02001644           JUNCTION     0.55     1.92     8.35     0  02:17        1.92
  YS02001647           JUNCTION     0.34     1.71     8.32     0  02:24        1.70
  YS02001649           JUNCTION     0.43     1.89     8.28     0  02:25        1.89
  YS02001652           JUNCTION     0.29     1.72     8.31     0  02:24        1.71
  YS02001655           JUNCTION     0.20     1.50     8.35     0  02:24        1.50
  YS02001658           JUNCTION     0.12     1.27     8.41     0  02:17        1.24
  YS02001661           JUNCTION     0.15     1.00     8.41     0  02:25        1.00
  YS02001664           JUNCTION     0.06     0.38     8.31     0  02:25        0.38
  YS02001745           JUNCTION     0.06     0.67     8.19     0  02:25        0.67
  YS02001748           JUNCTION     0.11     1.14     8.21     0  02:21        1.11
  YS02001751           JUNCTION     0.16     1.32     8.20     0  02:21        1.30
  YS02001754           JUNCTION     0.26     1.57     8.18     0  02:21        1.56
  YS02001757           JUNCTION     0.47     1.90     8.16     0  02:24        1.89
  YS02001759           JUNCTION     0.40     1.91     8.28     0  02:22        1.89
  YS02001762           JUNCTION     0.38     1.91     8.31     0  02:22        1.88
  YS02001765           JUNCTION     0.36     1.89     8.34     0  02:22        1.85
  YS02001767           JUNCTION     0.35     1.88     8.37     0  02:22        1.85
  YS02001770           JUNCTION     0.36     1.91     8.41     0  02:22        1.89
  YS02001774           JUNCTION     0.42     1.97     8.40     0  02:22        1.95
  YS02001779           JUNCTION     0.23     1.68     8.37     0  02:20        1.68
  YS02001783           JUNCTION     0.27     1.70     7.85     0  02:17        1.48
  YS02001784           JUNCTION     0.29     1.68     7.75     0  02:17        1.43
  YS02001786           JUNCTION     0.24     1.51     7.54     0  02:17        1.27
  YS02001788           JUNCTION     0.18     1.43     7.41     0  02:17        1.13
  YS02001790           JUNCTION     0.22     1.50     7.15     0  03:00        1.29
  YS02001791           JUNCTION     0.16     1.46     6.93     0  02:59        1.27
  YS02001793           JUNCTION     0.16     1.80     6.64     0  02:19        1.79
  YS02001882           JUNCTION     0.32     1.64     8.36     0  02:24        1.63
  YS02001884           JUNCTION     0.41     1.74     8.35     0  02:24        1.73
  YS02001887           JUNCTION     0.49     1.81     8.35     0  02:24        1.81
  YS02001890           JUNCTION     0.52     1.81     8.32     0  02:13        1.81
  YS02001895           JUNCTION     0.30     1.57     8.31     0  02:21        1.56
  YS02001898           JUNCTION     0.30     1.56     8.30     0  02:19        1.55
  YS02001901           JUNCTION     0.41     1.68     8.29     0  02:20        1.67
  YS02001904           JUNCTION     0.39     1.64     8.27     0  02:15        1.63
  YS02001907           JUNCTION     0.70     1.96     8.25     0  02:13        1.96
  YS02001910           JUNCTION     0.50     1.87     8.38     0  02:25        1.87
  YS02001915           JUNCTION     0.33     1.77     8.48     0  02:24        1.76
  YS02001918           JUNCTION     0.17     1.47     8.54     0  02:14        1.45
  YS02001920           JUNCTION     0.26     1.58     8.59     0  02:14        1.56
  YS02001923           JUNCTION     0.13     1.36     8.62     0  02:14        1.35
  YS02001926           JUNCTION     0.17     1.21     8.65     0  02:14        1.20
  YS02001929           JUNCTION     0.09     1.00     8.69     0  02:13        0.99
  YS02006553           JUNCTION     0.70     2.03     8.32     0  02:17        1.97
  YS02006556           JUNCTION     0.67     2.09     8.40     0  02:17        1.94
  YS02006558           JUNCTION     0.72     2.16     8.42     0  02:17        1.98
  YS02006561           JUNCTION     0.16     1.28     7.94     0  02:17        1.09
  YS02163301           JUNCTION     0.54     1.91     8.43     0  02:18        1.90
  YS02163601           JUNCTION     0.62     2.03     8.43     0  02:18        2.01
  YS02164001           JUNCTION     0.55     1.95     8.41     0  02:18        1.93
  YSB1154              JUNCTION     0.46     1.91    10.97     0  02:24        1.90
  YSB1171              JUNCTION     0.60     1.95    10.85     0  02:12        1.95
  YSB1174              JUNCTION     0.41     1.79    10.90     0  02:24        1.79
  YSB6556              JUNCTION     0.36     1.74    10.91     0  02:24        1.73
  CC-1                 OUTFALL      0.00     0.00     0.00     0  00:00        0.00
  CC-2                 OUTFALL      0.00     0.00     0.00     0  00:00        0.00
  JK-1                 OUTFALL      0.00     0.00     0.00     0  00:00        0.00
  JK-2                 OUTFALL      0.00     0.00     0.00     0  00:00        0.00
  WSC                  OUTFALL      0.31     0.52     1.19     0  02:28        0.52
  CC-storage           STORAGE      0.63     1.65     7.15     0  03:00        1.64
  JK-storage           STORAGE      0.63     5.80     6.60     0  02:17        5.80
  XR-storage           STORAGE      7.72     8.66     6.66     0  06:00        8.66
  
  
  *******************
  Node Inflow Summary
  *******************
  
  -------------------------------------------------------------------------------------------------
                                  Maximum  Maximum                  Lateral       Total        Flow
                                  Lateral    Total  Time of Max      Inflow      Inflow     Balance
                                   Inflow   Inflow   Occurrence      Volume      Volume       Error
  Node                 Type           LPS      LPS  days hr:min    10^6 ltr    10^6 ltr     Percent
  -------------------------------------------------------------------------------------------------
  HS02004478           JUNCTION      0.00  2306.22     0  02:22           0          10      -0.004
  HS02004479           JUNCTION      0.00   381.39     0  02:14           0        1.01       0.093
  HS02004480           JUNCTION      0.00  2048.32     0  02:11           0        7.57       0.038
  HS02004770           JUNCTION   1599.63  1599.63     0  02:25        3.14        3.41       0.098
  HS02004777           JUNCTION      0.03   668.09     0  02:07    0.000648        2.22       0.244
  HS02004785           JUNCTION      0.15   681.57     0  02:06     0.00324        2.22       0.043
  HS02004788           JUNCTION    581.13   874.35     0  02:09        1.19         3.4       0.010
  HS02004792           JUNCTION   1990.15  2806.02     0  02:25        4.07        7.47       0.010
  HS02004799           JUNCTION    351.44  1709.99     0  02:11       0.674        6.76       0.048
  HS02004802           JUNCTION      0.00  1232.65     0  02:26           0        2.59       0.163
  HS02004807           JUNCTION    434.68  1527.11     0  02:25       0.825        2.68       0.169
  HS02004817           JUNCTION      0.60  1093.20     0  02:25       0.013        1.92       0.899
  HS02004824           JUNCTION    637.00  1092.26     0  02:25        1.46        2.18       0.040
  HS02004830           JUNCTION      0.15   534.68     0  02:11     0.00324       0.994       0.128
  HS02004837           JUNCTION    408.15   719.98     0  02:11        0.92        1.41       0.069
  HS02004842           JUNCTION      0.00   725.19     0  02:11           0       0.915       1.473
  HS02004848           JUNCTION    595.15   971.40     0  02:11        1.44        2.18       0.012
  HS02004852           JUNCTION      0.00   959.45     0  02:11           0        2.03      -0.014
  HS02004856           JUNCTION    178.11  1006.66     0  02:11       0.341        2.37       0.069
  HS02004862           JUNCTION    270.30  1051.24     0  02:11       0.607        2.97       0.021
  HS02004870           JUNCTION    237.49  1238.50     0  02:24       0.453        3.42       0.015
  HS02004876           JUNCTION    238.67  1478.05     0  02:25       0.468        3.89       0.031
  HS02004881           JUNCTION    127.27  1604.83     0  02:25       0.239        4.13       0.017
  HS02004901           JUNCTION    373.13   638.86     0  02:25         0.7        1.13       0.183
  WS02001211           JUNCTION      7.35   205.44     0  03:16       0.159        4.02       0.828
  WS02001212           JUNCTION      0.00   213.43     0  03:17           0        3.98       0.394
  WS02001213           JUNCTION      0.00   219.78     0  03:17           0        3.97       0.458
  WS02003059           JUNCTION      0.00   226.97     0  03:17           0        3.96       0.821
  WS02003060           JUNCTION     16.53  1514.56     0  02:26       0.357          14       0.112
  WS02003066           JUNCTION      0.00  1308.11     0  02:25           0        9.74       0.019
  WS02003067           JUNCTION      0.00  1307.90     0  02:25           0        9.75       0.051
  WS02003069           JUNCTION      0.32  1514.29     0  02:26     0.00691          14       0.117
  WS02003072           JUNCTION      0.00  1513.72     0  02:26           0          14       0.158
  WS02003073           JUNCTION      1.82  1515.35     0  02:27      0.0393          14       0.165
  WS02004138           JUNCTION      0.00   190.00     0  00:29           0        3.88       0.071
  WS02004139           JUNCTION      0.32   190.32     0  00:32     0.00693        3.89       0.688
  WS02004401           JUNCTION      0.00  1309.01     0  02:25           0        9.87       0.119
  WS02004402           JUNCTION      0.00  1309.21     0  02:24           0        9.86       0.119
  WS02004403           JUNCTION      0.00  1309.18     0  02:25           0        9.85       0.115
  WS02004404           JUNCTION      0.16  1309.35     0  02:25      0.0035        9.84       0.099
  WS02004405           JUNCTION      0.04  1309.50     0  02:25    0.000823        9.83       0.134
  WS02004406           JUNCTION      0.00  1309.90     0  02:25           0        9.82       0.233
  WS02004407           JUNCTION      0.00  1309.41     0  02:25           0         9.8       0.023
  WS02004409           JUNCTION      0.00  1307.44     0  02:25           0        9.79       0.051
  WS02004410           JUNCTION      0.00  1307.90     0  02:25           0        9.79       0.068
  WS02004411           JUNCTION      0.00  1308.25     0  02:25           0        9.78       0.078
  WS02004412           JUNCTION      0.00  1307.90     0  02:25           0        9.78       0.097
  WS02004413           JUNCTION      0.00  1307.66     0  02:25           0        9.77       0.168
  WS02006109           JUNCTION      1.23  1289.63     0  02:22      0.0266        9.66       0.103
  WS02006110           JUNCTION      0.00  1123.71     0  02:40           0        9.35       0.091
  WS02006111           JUNCTION      0.00  1123.80     0  02:40           0        9.34       0.013
  WS02006112           JUNCTION    304.45  1308.68     0  02:24       0.575        9.91       0.220
  WS02006113           JUNCTION      0.00  1123.87     0  02:40           0        9.34       0.031
  WS02006115           JUNCTION      0.00  1308.47     0  02:24           0        9.89       0.087
  WS02006116           JUNCTION      0.00  1308.85     0  02:25           0        9.88       0.061
  WS02006228           JUNCTION      0.00  1288.28     0  02:22           0        9.64       0.059
  WS02006229           JUNCTION      0.00  2305.48     0  02:22           0        12.5       0.091
  WS02006230           JUNCTION     10.28  1026.18     0  02:22       0.222        5.44       0.207
  WS02006231           JUNCTION      0.00   453.29     0  02:20           0        4.08      -0.097
  WS02006232           JUNCTION      0.00   453.36     0  02:20           0        4.09       0.209
  WS02006234           JUNCTION      0.00   453.11     0  02:38           0        4.08      -0.059
  WS02006235           JUNCTION      0.00   417.30     0  02:30           0        4.09       0.125
  WS02006238           JUNCTION      0.00   415.78     0  02:30           0        3.79      -0.243
  WS02006239           JUNCTION      0.00   415.21     0  02:40           0        3.78      -0.246
  WS02006240           JUNCTION      0.00   415.01     0  02:41           0        3.78       0.004
  WS02006242           JUNCTION      0.00   415.12     0  02:41           0        3.78       0.067
  WS02006243           JUNCTION      0.00   391.81     0  04:10           0         3.3      -0.260
  WS02006245           JUNCTION      0.00   396.25     0  04:03           0        3.31       0.373
  WS02006247           JUNCTION      0.00   399.31     0  04:03           0        3.31       0.074
  WS02006248           JUNCTION      0.00   408.16     0  04:02           0        3.63      -0.016
  WS02006249           JUNCTION      0.00  1363.22     0  02:25           0        6.82       0.163
  WS02006251           JUNCTION      0.08  1637.50     0  02:25     0.00166        6.98      -0.009
  WS02006252           JUNCTION      0.00   470.23     0  02:20           0        3.06      -0.102
  WS02006253           JUNCTION     31.68  1636.78     0  02:25      0.0577        4.24       0.034
  WS02006256           JUNCTION      0.00   300.00     0  01:20           0        1.31      -0.044
  WS02006280           JUNCTION      0.00  2304.10     0  02:22           0        9.99       0.003
  WS02006284           JUNCTION      0.10  2304.34     0  02:22     0.00207        9.99       0.005
  WS02006287           JUNCTION      0.00  2305.28     0  02:22           0        9.99       0.011
  WSF200               JUNCTION      0.00  1308.23     0  02:25           0        9.74       0.012
  YS02001580           JUNCTION      0.00    57.18     0  02:04           0     0.00413       1.132
  YS02001583           JUNCTION      0.00    91.10     0  02:04           0      0.0159      -2.954
  YS02001586           JUNCTION    750.12   750.12     0  02:25        1.92        1.93       0.054
  YS02001590           JUNCTION      0.00   317.98     0  02:25           0        1.52      -0.014
  YS02001593           JUNCTION      0.00   318.03     0  02:25           0        1.52       0.011
  YS02001596           JUNCTION      0.00   317.97     0  02:21           0        1.52      -0.005
  YS02001600           JUNCTION      0.00   318.12     0  02:25           0        1.52       0.029
  YS02001601           JUNCTION   1251.75  1569.46     0  02:25        2.64        4.16       0.040
  YS02001602           JUNCTION      0.00   493.02     0  02:04           0        2.61       0.038
  YS02001605           JUNCTION      0.00   492.76     0  02:04           0        2.49       0.055
  YS02001607           JUNCTION      0.00   492.12     0  02:04           0        2.49       0.106
  YS02001610           JUNCTION      0.00   720.64     0  02:25           0        2.71       0.124
  YS02001613           JUNCTION      0.00   490.20     0  02:04           0         2.2       0.104
  YS02001616           JUNCTION      0.00   492.31     0  02:04           0         2.2       0.039
  YS02001619           JUNCTION   1322.34  1322.34     0  02:25        3.08        5.05       0.008
  YS02001622           JUNCTION      0.00   940.85     0  02:25           0        4.82       0.013
  YS02001625           JUNCTION      0.00  1343.15     0  02:25           0        5.02       0.226
  YS02001629           JUNCTION      0.00   938.79     0  02:12           0        4.06       0.015
  YS02001633           JUNCTION    939.89  1360.58     0  02:12        1.93         5.8       0.074
  YS02001641           JUNCTION      0.00  1358.36     0  02:12           0         5.6       0.058
  YS02001644           JUNCTION    833.16  1736.16     0  02:12        1.67        7.27       0.056
  YS02001647           JUNCTION      0.00  1737.13     0  02:12           0        7.11       0.011
  YS02001649           JUNCTION      0.00  2009.21     0  02:13           0        8.64       0.012
  YS02001652           JUNCTION      0.00   807.85     0  02:25           0        1.53      -0.083
  YS02001655           JUNCTION      0.15   807.11     0  02:25     0.00332        1.53       0.002
  YS02001658           JUNCTION      0.00   806.60     0  02:25           0        1.53      -0.020
  YS02001661           JUNCTION      0.00   799.61     0  02:25           0        1.53       0.018
  YS02001664           JUNCTION    802.63   802.63     0  02:25        1.53        1.53      -0.005
  YS02001745           JUNCTION    492.03   492.03     0  02:25       0.925       0.925       0.145
  YS02001748           JUNCTION      0.04   496.54     0  02:25    0.000972       0.925      -0.211
  YS02001751           JUNCTION      0.01   496.82     0  02:25    0.000238       0.927       0.065
  YS02001754           JUNCTION      0.26   497.74     0  02:25     0.00562       0.933      -0.136
  YS02001757           JUNCTION      0.00  3509.70     0  02:24           0        12.8       0.029
  YS02001759           JUNCTION    684.56  1413.54     0  02:23        1.28        3.18      -0.000
  YS02001762           JUNCTION      0.00   819.09     0  02:27           0         1.9       0.014
  YS02001765           JUNCTION      0.00   817.38     0  02:27           0         1.9       0.013
  YS02001767           JUNCTION      0.54   816.48     0  02:27      0.0116         1.9       0.011
  YS02001770           JUNCTION    991.00   991.00     0  02:25        1.95        1.99      -0.002
  YS02001774           JUNCTION      0.00   266.29     0  02:25           0       0.126       1.183
  YS02001779           JUNCTION      0.01   267.34     0  02:25    0.000108      0.0763      -0.275
  YS02001783           JUNCTION      0.00  1161.29     0  02:24           0        4.67       0.007
  YS02001784           JUNCTION      1.06  1162.82     0  02:25      0.0229        4.69       0.015
  YS02001786           JUNCTION      0.06  1162.47     0  02:24     0.00122        4.69       0.016
  YS02001788           JUNCTION      0.07  1163.05     0  02:24     0.00153        4.69       0.004
  YS02001790           JUNCTION      0.15  1183.18     0  02:22     0.00335        4.69      -0.008
  YS02001791           JUNCTION      0.00  1285.43     0  02:28           0        4.69      -0.011
  YS02001793           JUNCTION      0.00  1238.70     0  02:29           0         4.7      -0.025
  YS02001882           JUNCTION      0.00    26.62     0  02:09           0      0.0138       5.652
  YS02001884           JUNCTION      0.00    34.23     0  02:08           0        0.05       5.755
  YS02001887           JUNCTION    715.95   715.95     0  02:25        1.33        1.36       0.350
  YS02001890           JUNCTION      0.00   715.95     0  02:25           0        1.32       0.408
  YS02001895           JUNCTION      0.00   518.20     0  02:26           0        1.26       0.151
  YS02001898           JUNCTION      0.00   518.96     0  02:26           0        1.26       0.030
  YS02001901           JUNCTION      0.00   518.62     0  02:26           0        1.26       0.277
  YS02001904           JUNCTION      0.00   518.33     0  02:26           0        1.27       0.251
  YS02001907           JUNCTION      0.00  1869.21     0  02:25           0        4.15       0.456
  YS02001910           JUNCTION      0.00  1352.81     0  02:25           0        2.89       0.260
  YS02001915           JUNCTION    902.26  1353.36     0  02:25        1.85         2.9       0.062
  YS02001918           JUNCTION      0.00   462.37     0  02:25           0        1.06       0.031
  YS02001920           JUNCTION      2.87   461.96     0  02:25       0.062        1.05       0.103
  YS02001923           JUNCTION      0.04   456.65     0  02:25    0.000814       0.985      -0.018
  YS02001926           JUNCTION      0.05   455.54     0  02:25     0.00113       0.977       0.021
  YS02001929           JUNCTION    449.40   449.40     0  02:25       0.973       0.973      -0.018
  YS02006553           JUNCTION      0.00   795.70     0  02:38           0        2.77       0.447
  YS02006556           JUNCTION      0.00   795.31     0  02:39           0        2.78       0.316
  YS02006558           JUNCTION   1007.78  1161.31     0  02:24        1.95         4.7       0.078
  YS02006561           JUNCTION      0.00  1161.18     0  02:25           0        4.67      -0.002
  YS02163301           JUNCTION      0.00   938.33     0  02:12           0        4.07       0.051
  YS02163601           JUNCTION      0.11  1360.23     0  02:12     0.00238         5.6       0.099
  YS02164001           JUNCTION      0.00  1360.27     0  02:12           0         5.6       0.054
  YSB1154              JUNCTION    409.16   409.16     0  02:25       0.805       0.806       0.194
  YSB1171              JUNCTION      0.00   980.63     0  02:25           0        1.53       0.442
  YSB1174              JUNCTION    336.07   336.07     0  02:25       0.615       0.615       0.224
  YSB6556              JUNCTION      0.00   408.87     0  02:25           0       0.806       0.175
  CC-1                 OUTFALL       0.00   683.00     0  00:00           0        8.27       0.000
  CC-2                 OUTFALL       0.00   683.00     0  00:00           0        4.47       0.000
  JK-1                 OUTFALL       0.00  1000.00     0  00:00           0        3.51       0.000
  JK-2                 OUTFALL       0.00  1000.00     0  02:30           0        1.19       0.000
  WSC                  OUTFALL       0.00  1514.92     0  02:28           0          14       0.000
  CC-storage           STORAGE       0.00  3509.09     0  02:24           0          15      -4.480
  JK-storage           STORAGE       0.00  1254.29     0  02:36           0        4.85     -21.059
  XR-storage           STORAGE     200.00   200.00     0  00:00        4.32        4.92       0.001
  
  
  **********************
  Node Surcharge Summary
  **********************
  
  Surcharging occurs when water rises above the top of the highest conduit.
  ---------------------------------------------------------------------
                                               Max. Height   Min. Depth
                                   Hours       Above Crown    Below Rim
  Node                 Type      Surcharged         Meters       Meters
  ---------------------------------------------------------------------
  HS02004478           JUNCTION        0.59          0.665        0.275
  HS02004479           JUNCTION        0.75          0.897        0.153
  HS02004480           JUNCTION        0.80          0.959        0.141
  HS02004770           JUNCTION        0.68          0.720        0.000
  HS02004777           JUNCTION        0.69          0.780        0.000
  HS02004785           JUNCTION        0.63          0.762        0.028
  HS02004788           JUNCTION        0.62          0.640        0.080
  HS02004792           JUNCTION        0.76          0.900        0.000
  HS02004799           JUNCTION        0.94          1.060        0.000
  HS02004802           JUNCTION        0.82          1.090        0.120
  HS02004807           JUNCTION        0.79          1.220        0.000
  HS02004817           JUNCTION        1.46          1.693        0.047
  HS02004824           JUNCTION        0.61          1.279        0.031
  HS02004830           JUNCTION        0.58          1.294        0.036
  HS02004837           JUNCTION        0.52          1.237        0.103
  HS02004842           JUNCTION        0.70          1.520        0.000
  HS02004848           JUNCTION        0.48          1.195        0.175
  HS02004852           JUNCTION        0.50          1.212        0.208
  HS02004856           JUNCTION        0.48          1.193        0.107
  HS02004862           JUNCTION        0.52          1.243        0.057
  HS02004870           JUNCTION        0.53          1.222        0.178
  HS02004876           JUNCTION        0.59          1.302        0.258
  HS02004881           JUNCTION        0.56          1.053        0.397
  HS02004901           JUNCTION        0.69          0.720        0.000
  WS02004401           JUNCTION        1.71          0.873        0.787
  WS02004402           JUNCTION        1.72          0.817        0.923
  WS02004403           JUNCTION        1.73          0.735        1.295
  WS02004404           JUNCTION        1.80          0.744        2.036
  WS02004405           JUNCTION        1.78          0.692        2.108
  WS02004406           JUNCTION        1.77          0.578        1.872
  WS02004409           JUNCTION        1.34          0.394        1.966
  WS02004410           JUNCTION        1.24          0.301        2.239
  WS02004411           JUNCTION        1.11          0.209        2.321
  WS02004412           JUNCTION        0.99          0.108        2.202
  WS02004413           JUNCTION        1.59          0.146        2.054
  WS02006109           JUNCTION        2.43          1.820        0.000
  WS02006110           JUNCTION        1.87          1.488        0.362
  WS02006111           JUNCTION        1.58          0.940        0.930
  WS02006112           JUNCTION        1.93          1.389        0.291
  WS02006113           JUNCTION        1.59          1.032        0.898
  WS02006115           JUNCTION        1.66          0.962        1.288
  WS02006116           JUNCTION        1.67          0.906        1.384
  WS02006228           JUNCTION        2.41          2.200        0.000
  WS02006229           JUNCTION        1.18          1.046        0.024
  WS02006230           JUNCTION        1.79          1.570        0.000
  WS02006231           JUNCTION        1.79          1.479        0.051
  WS02006232           JUNCTION        2.09          1.480        0.000
  WS02006234           JUNCTION        1.81          1.240        0.000
  WS02006235           JUNCTION        1.90          1.244        0.046
  WS02006238           JUNCTION        1.98          1.238        0.192
  WS02006239           JUNCTION        1.86          1.070        0.220
  WS02006240           JUNCTION        1.85          1.161        0.229
  WS02006242           JUNCTION        1.97          0.820        0.000
  WS02006243           JUNCTION        1.82          0.770        0.000
  WS02006245           JUNCTION        1.80          0.593        0.257
  WS02006247           JUNCTION        1.83          0.546        0.214
  WS02006248           JUNCTION        1.75          0.380        0.000
  WS02006249           JUNCTION        1.79          0.390        0.000
  WS02006251           JUNCTION        1.61          1.116        0.064
  WS02006252           JUNCTION        2.21          1.100        0.000
  WS02006253           JUNCTION        1.61          2.149        0.331
  WS02006256           JUNCTION        5.67          2.050        0.000
  WS02006280           JUNCTION        0.97          0.698        0.082
  WS02006284           JUNCTION        0.85          0.669        0.131
  WS02006287           JUNCTION        0.70          0.739        0.151
  YS02001580           JUNCTION        0.75          0.294        0.156
  YS02001583           JUNCTION        0.76          0.235        0.265
  YS02001586           JUNCTION        0.90          0.510        0.000
  YS02001590           JUNCTION        1.00          0.750        0.000
  YS02001593           JUNCTION        1.00          0.697        0.143
  YS02001596           JUNCTION        1.13          0.945        0.125
  YS02001600           JUNCTION        1.31          1.190        0.000
  YS02001601           JUNCTION        1.67          1.440        0.000
  YS02001602           JUNCTION        1.56          1.270        0.000
  YS02001605           JUNCTION        1.50          1.174        0.006
  YS02001607           JUNCTION        0.97          0.646        0.034
  YS02001610           JUNCTION        1.00          0.680        0.000
  YS02001613           JUNCTION        0.97          0.656        0.044
  YS02001616           JUNCTION        0.91          0.601        0.009
  YS02001619           JUNCTION        0.89          0.594        0.016
  YS02001622           JUNCTION        0.88          0.571        0.049
  YS02001625           JUNCTION        1.11          0.780        0.000
  YS02001629           JUNCTION        0.77          0.470        0.000
  YS02001633           JUNCTION        1.13          0.981        0.079
  YS02001641           JUNCTION        1.05          0.950        0.150
  YS02001644           JUNCTION        1.02          0.920        0.000
  YS02001647           JUNCTION        0.63          0.713        0.187
  YS02001649           JUNCTION        0.84          0.893        0.157
  YS02001652           JUNCTION        0.52          0.689        0.441
  YS02001655           JUNCTION        0.35          0.504        0.696
  YS02001658           JUNCTION        0.21          0.268        1.032
  YS02001748           JUNCTION        0.07          0.057        1.133
  YS02001751           JUNCTION        0.23          0.318        0.882
  YS02001754           JUNCTION        0.37          0.519        0.631
  YS02001757           JUNCTION        0.90          0.899        0.311
  YS02001759           JUNCTION        0.80          0.914        0.296
  YS02001762           JUNCTION        0.71          0.911        0.239
  YS02001765           JUNCTION        0.60          0.887        0.213
  YS02001767           JUNCTION        0.56          0.881        0.149
  YS02001770           JUNCTION        0.53          0.883        0.037
  YS02001774           JUNCTION        0.65          0.974        0.076
  YS02001779           JUNCTION        0.38          0.680        0.000
  YS02001783           JUNCTION        0.65          0.905        0.695
  YS02001784           JUNCTION        0.62          0.877        0.613
  YS02001786           JUNCTION        0.49          0.714        0.716
  YS02001788           JUNCTION        0.08          0.632        0.848
  YS02001790           JUNCTION        0.27          0.703        0.454
  YS02001791           JUNCTION        0.27          0.665        1.255
  YS02001793           JUNCTION        0.37          0.804        1.796
  YS02001882           JUNCTION        0.58          0.641        0.189
  YS02001884           JUNCTION        0.60          0.678        0.192
  YS02001887           JUNCTION        0.64          0.764        0.186
  YS02001890           JUNCTION        0.66          0.760        0.000
  YS02001895           JUNCTION        0.57          0.565        0.185
  YS02001898           JUNCTION        0.56          0.530        0.210
  YS02001901           JUNCTION        0.62          0.677        0.193
  YS02001904           JUNCTION        0.61          0.636        0.214
  YS02001907           JUNCTION        0.98          0.950        0.000
  YS02001910           JUNCTION        0.69          0.872        0.228
  YS02001915           JUNCTION        0.58          0.766        0.234
  YS02001918           JUNCTION        0.48          0.470        0.340
  YS02001920           JUNCTION        0.49          0.579        0.561
  YS02001923           JUNCTION        0.07          0.154        0.666
  YS02001926           JUNCTION        0.11          0.209        0.691
  YS02006553           JUNCTION        1.02          1.032        0.158
  YS02006556           JUNCTION        0.82          1.045        0.305
  YS02006558           JUNCTION        0.80          1.058        0.342
  YS02006561           JUNCTION        0.44          0.481        0.669
  YS02163301           JUNCTION        1.11          0.910        0.120
  YS02163601           JUNCTION        1.17          1.032        0.048
  YS02164001           JUNCTION        1.06          0.953        0.147
  YSB1154              JUNCTION        1.11          1.213        0.187
  YSB1171              JUNCTION        1.11          1.100        0.000
  YSB1174              JUNCTION        0.99          1.094        0.156
  YSB6556              JUNCTION        0.90          1.039        0.061
  
  
  *********************
  Node Flooding Summary
  *********************
  
  Flooding refers to all water that overflows a node, whether it ponds or not.
  --------------------------------------------------------------------------
                                                             Total   Maximum
                                 Maximum   Time of Max       Flood    Ponded
                        Hours       Rate    Occurrence      Volume     Depth
  Node                 Flooded       LPS   days hr:min    10^6 ltr    Meters
  --------------------------------------------------------------------------
  HS02004770              0.47   1097.90      0  02:25       0.764     0.000
  HS02004777              0.01     16.56      0  02:07       0.000     0.000
  HS02004792              0.45   1662.40      0  02:25       1.380     0.000
  HS02004799              0.24    190.08      0  02:25       0.084     0.000
  HS02004807              0.09    295.30      0  02:25       0.043     0.000
  HS02004842              0.01     19.36      0  02:11       0.000     0.000
  HS02004901              0.56    638.66      0  02:25       0.852     0.000
  WS02006109              0.51    283.80      0  02:25       0.307     0.000
  WS02006230              0.86    573.42      0  02:22       1.168     0.000
  WS02006232              0.19      0.67      0  02:04       0.000     0.000
  WS02006234              0.94    128.55      0  02:12       0.304     0.000
  WS02006242              1.09    148.68      0  01:30       0.472     0.000
  WS02006243              0.01     93.33      0  01:30       0.000     0.000
  WS02006248              1.55    339.05      0  02:19       1.579     0.000
  WS02006249              1.63   1302.34      0  02:25       4.434     0.000
  WS02006252              0.43    468.95      0  02:20       0.316     0.000
  WS02006256              1.13    290.59      0  02:40       0.717     0.000
  YS02001586              0.57    431.98      0  02:25       0.397     0.000
  YS02001590              0.01      4.09      0  02:04       0.000     0.000
  YS02001600              0.01      1.36      0  02:04       0.000     0.000
  YS02001601              0.81   1170.71      0  02:25       1.544     0.000
  YS02001602              0.60     61.96      0  02:27       0.122     0.000
  YS02001610              0.52    719.96      0  02:25       0.731     0.000
  YS02001625              0.47   1342.92      0  02:25       1.136     0.000
  YS02001629              0.05     27.46      0  02:18       0.001     0.000
  YS02001644              0.15    556.62      0  02:25       0.151     0.000
  YS02001779              0.11    267.04      0  02:25       0.054     0.000
  YS02001890              0.18    199.11      0  02:25       0.055     0.000
  YS02001907              0.41   1716.31      0  02:25       1.368     0.000
  YSB1171                 0.34    980.09      0  02:25       0.636     0.000
  JK-storage              0.12    751.09      0  02:17       0.125     0.000
  
  
  **********************
  Storage Volume Summary
  **********************
  
  --------------------------------------------------------------------------------------------------
                         Average     Avg  Evap Exfil       Maximum     Max    Time of Max    Maximum
                          Volume    Pcnt  Pcnt  Pcnt        Volume    Pcnt     Occurrence    Outflow
  Storage Unit           1000 m3    Full  Loss  Loss       1000 m3    Full    days hr:min        LPS
  --------------------------------------------------------------------------------------------------
  CC-storage               1.766      28     0     0         4.591      72       0  03:00    1783.41
  JK-storage               0.032      11     0     0         0.291     100       0  02:17    2300.00
  XR-storage               0.927      64     0     0         1.039      72       0  06:00     190.00
  
  
  ***********************
  Outfall Loading Summary
  ***********************
  
  -----------------------------------------------------------
                         Flow       Avg       Max       Total
                         Freq      Flow      Flow      Volume
  Outfall Node           Pcnt       LPS       LPS    10^6 ltr
  -----------------------------------------------------------
  CC-1                  80.38    536.57    683.00       8.272
  CC-2                  42.81    524.87    683.00       4.466
  JK-1                  62.37    255.52   1000.00       3.510
  JK-2                  17.11    367.90   1000.00       1.192
  WSC                   99.97    681.27   1514.92      13.986
  -----------------------------------------------------------
  System                60.53   2366.13   4869.56      31.426
  
  
  ********************
  Link Flow Summary
  ********************
  
  -----------------------------------------------------------------------------
                                 Maximum  Time of Max   Maximum    Max/    Max/
                                  |Flow|   Occurrence   |Veloc|    Full    Full
  Link                 Type          LPS  days hr:min     m/sec    Flow   Depth
  -----------------------------------------------------------------------------
  1                    CONDUIT   1514.92     0  02:28      3.70    0.53    0.52
  HS02004478WS02006287 CONDUIT   2305.28     0  02:22      2.56    0.65    1.00
  HS02004479HS02004480 CONDUIT    382.41     0  02:14      0.55    0.37    1.00
  HS02004480HS02004478 CONDUIT   2045.54     0  02:11      2.92    8.62    1.00
  HS02004770HS02004777 CONDUIT    668.06     0  02:07      0.95    1.22    1.00
  HS02004777HS02004785 CONDUIT    681.42     0  02:06      1.04    0.84    1.00
  HS02004785HS02004788 CONDUIT    664.56     0  02:08      1.35    5.01    1.00
  HS02004788HS02004792 CONDUIT    873.40     0  02:09      1.46    0.58    1.00
  HS02004792HS02004799 CONDUIT   1569.88     0  02:09      2.24    0.96    1.00
  HS02004799HS02004480 CONDUIT   1709.81     0  02:11      2.44    2.16    1.00
  HS02004802HS02004478 CONDUIT   1233.07     0  02:25      1.76    1.09    1.00
  HS02004807HS02004802 CONDUIT   1232.65     0  02:26      1.76    2.35    1.00
  HS02004817HS02004807 CONDUIT   1094.10     0  02:25      1.56    0.65    1.00
  HS02004817HS02004824 CONDUIT   1092.60     0  02:25      1.56    0.49    1.00
  HS02004824HS02004830 CONDUIT    534.53     0  02:11      0.76    0.70    1.00
  HS02004830HS02004837 CONDUIT    542.56     0  02:08      0.86    0.54    1.00
  HS02004837HS02004842 CONDUIT    725.19     0  02:11      1.04    0.43    1.00
  HS02004842HS02004848 CONDUIT    726.17     0  02:11      1.08    0.42    1.00
  HS02004848HS02004852 CONDUIT    959.45     0  02:11      1.48    1.08    1.00
  HS02004852HS02004856 CONDUIT    928.28     0  02:11      1.42    1.06    1.00
  HS02004856HS02004862 CONDUIT    941.95     0  02:11      1.64    0.94    1.00
  HS02004862HS02004870 CONDUIT   1012.75     0  02:10      1.89    1.09    1.00
  HS02004870HS02004876 CONDUIT   1239.38     0  02:25      1.91    0.82    1.00
  HS02004876HS02004881 CONDUIT   1477.68     0  02:25      2.62   15.72    1.00
  HS02004881HS02006253 CONDUIT   1605.11     0  02:25      2.29    0.31    1.00
  HS02004901HS02004770 CONDUIT    265.79     0  02:37      0.38    1.00    1.00
  WS02001211WS02001212 CONDUIT    213.43     0  03:17      0.54    0.16    0.69
  WS02001212WS02001213 CONDUIT    219.78     0  03:17      1.04    0.34    0.56
  WS02001213WS02003059 CONDUIT    226.97     0  03:17      0.47    0.37    0.90
  WS02003059WS02003060 CONDUIT    236.08     0  03:18      0.65    0.15    0.81
  WS02003060WS02003069 CONDUIT   1513.97     0  02:26      2.09    0.59    0.61
  WS02003066WSF200     CONDUIT   1308.23     0  02:25      3.25    0.22    0.39
  WS02003067WS02003066 CONDUIT   1308.11     0  02:25      2.01    0.42    0.56
  WS02003069WS02003072 CONDUIT   1513.72     0  02:26      1.90    0.73    0.66
  WS02003072WS02003073 CONDUIT   1513.53     0  02:27      2.06    3.27    0.62
  WS02004138WS02004139 CONDUIT    190.00     0  00:32      2.17    0.04    0.42
  WS02004139WS02001211 CONDUIT    198.09     0  03:16      0.54    0.25    0.61
  WS02004401WS02004402 CONDUIT   1309.21     0  02:24      1.67    1.57    1.00
  WS02004402WS02004403 CONDUIT   1309.18     0  02:25      1.67    1.88    1.00
  WS02004403WS02004404 CONDUIT   1309.19     0  02:25      1.67    0.95    1.00
  WS02004404WS02004405 CONDUIT   1309.47     0  02:25      1.67   12.83    1.00
  WS02004405WS02004406 CONDUIT   1309.90     0  02:25      1.67    2.58    1.00
  WS02004406WS02004407 CONDUIT   1309.41     0  02:25      1.68    0.59    0.97
  WS02004407WS02004409 CONDUIT   1307.44     0  02:25      1.84    0.46    0.97
  WS02004409WS02004410 CONDUIT   1307.90     0  02:25      1.67    1.69    1.00
  WS02004410WS02004411 CONDUIT   1308.25     0  02:25      1.67    1.79    1.00
  WS02004411WS02004412 CONDUIT   1307.90     0  02:25      1.67    1.86    1.00
  WS02004412WS02004413 CONDUIT   1307.66     0  02:25      1.66    0.88    1.00
  WS02004413WS02003067 CONDUIT   1307.90     0  02:25      2.02    0.56    0.77
  WS02006109WS02006110 CONDUIT   1123.71     0  02:40      2.24    2.16    1.00
  WS02006110WS02006113 CONDUIT   1123.87     0  02:40      2.24    1.02    1.00
  WS02006111WS02006112 CONDUIT   1123.90     0  02:40      2.24    0.53    1.00
  WS02006112WS02006115 CONDUIT   1308.47     0  02:24      1.67    0.77    1.00
  WS02006113WS02006111 CONDUIT   1123.80     0  02:40      2.72    1.35    1.00
  WS02006115WS02006116 CONDUIT   1308.85     0  02:25      1.67    1.68    1.00
  WS02006116WS02004401 CONDUIT   1309.01     0  02:25      1.67    1.80    1.00
  WS02006228WS02006109 CONDUIT   1288.40     0  02:22      2.56    5.63    1.00
  WS02006229WS02006228 CONDUIT   1288.28     0  02:22      2.56    4.27    1.00
  WS02006230WS02006229 CONDUIT   1015.90     0  02:22      2.64   22.61    1.00
  WS02006231WS02006230 CONDUIT    453.29     0  02:20      1.37    6.88    1.00
  WS02006232WS02006231 CONDUIT    453.36     0  02:20      1.18    0.95    1.00
  WS02006234WS02006232 CONDUIT    453.11     0  02:38      1.55    0.92    1.00
  WS02006235WS02006234 CONDUIT    417.30     0  02:30      1.30    4.40    1.00
  WS02006238WS02006235 CONDUIT    415.78     0  02:30      1.60    0.93    1.00
  WS02006239WS02006238 CONDUIT    415.21     0  02:40      1.25    1.33    1.00
  WS02006240WS02006239 CONDUIT    415.01     0  02:41      1.31    1.31    1.00
  WS02006242WS02006240 CONDUIT    415.12     0  02:41      1.15    1.65    1.00
  WS02006243WS02006242 CONDUIT    392.75     0  04:10      1.39    0.84    1.00
  WS02006245WS02006243 CONDUIT    391.81     0  04:10      1.39    1.16    1.00
  WS02006247WS02006245 CONDUIT    396.25     0  04:03      1.38    3.14    1.00
  WS02006248WS02006247 CONDUIT    399.31     0  04:03      1.40    0.87    1.00
  WS02006249WS02006248 CONDUIT    408.16     0  04:02      1.39    2.24    1.00
  WS02006251WS02006249 CONDUIT   1363.22     0  02:25      3.54    3.93    1.00
  WS02006252WS02006251 CONDUIT    409.70     0  01:40     26.09    1.50    1.00
  WS02006253WS02006251 CONDUIT   1637.43     0  02:25      4.25    4.91    1.00
  WS02006256WS02006235 CONDUIT    269.21     0  05:10      3.81    2.85    1.00
  WS02006280WS02006229 CONDUIT   2305.48     0  02:22      3.94    0.49    1.00
  WS02006284WS02006280 CONDUIT   2304.10     0  02:22      3.02    0.96    1.00
  WS02006287WS02006284 CONDUIT   2304.24     0  02:22      2.93    1.07    1.00
  WSF200WS02003060     CONDUIT   1308.35     0  02:26      2.29    0.29    0.50
  YS02001580YS02001583 CONDUIT     57.18     0  02:04      0.46    0.22    1.00
  YS02001583YS02001586 CONDUIT     91.10     0  02:04      0.37    0.14    1.00
  YS02001586YS02001590 CONDUIT    317.98     0  02:25      1.24    0.56    1.00
  YS02001590YS02001593 CONDUIT    318.03     0  02:25      1.12    2.00    1.00
  YS02001593YS02001596 CONDUIT    317.97     0  02:21      1.74    0.50    1.00
  YS02001596YS02001600 CONDUIT    318.12     0  02:25      1.27    0.62    1.00
  YS02001600YS02001601 CONDUIT    317.90     0  02:25      1.12    0.55    1.00
  YS02001601YS02001602 CONDUIT    493.02     0  02:04      1.74    1.78    1.00
  YS02001602YS02001605 CONDUIT    492.76     0  02:04      1.74   10.43    1.00
  YS02001605YS02001607 CONDUIT    492.12     0  02:04      1.74    2.70    1.00
  YS02001607YS02001610 CONDUIT    491.86     0  02:04      0.63    0.47    1.00
  YS02001610YS02001613 CONDUIT    490.20     0  02:04      0.62    0.57    1.00
  YS02001613YS02001616 CONDUIT    492.31     0  02:04      0.63    0.42    1.00
  YS02001616YS02001619 CONDUIT    495.18     0  02:04      0.66    0.86    1.00
  YS02001619YS02001622 CONDUIT    940.85     0  02:25      1.20    1.39    1.00
  YS02001622YS02001625 CONDUIT    941.61     0  02:25      1.20    0.50    1.00
  YS02001625YS02001629 CONDUIT    938.79     0  02:12      1.20    0.45    1.00
  YS02001629YS02163301 CONDUIT    938.33     0  02:12      1.19    1.16    1.00
  YS02001633YS02163601 CONDUIT   1360.12     0  02:12      1.73    1.43    1.00
  YS02001641YS02001644 CONDUIT   1358.87     0  02:12      1.73    4.39    1.00
  YS02001644YS02001647 CONDUIT   1737.13     0  02:12      2.22    1.02    1.00
  YS02001647YS02001649 CONDUIT   1744.96     0  02:12      2.24    0.92    1.00
  YS02001649YS02001757 CONDUIT   2010.56     0  02:13      2.56    1.22    1.00
  YS02001652YS02001649 CONDUIT    808.50     0  02:25      1.03    0.40    1.00
  YS02001655YS02001652 CONDUIT    807.85     0  02:25      1.23    0.39    1.00
  YS02001658YS02001655 CONDUIT    806.96     0  02:25      1.76    0.34    1.00
  YS02001661YS02001658 CONDUIT    806.60     0  02:25      2.25    0.32    0.97
  YS02001664YS02001661 CONDUIT    799.61     0  02:25      2.26    0.25    0.69
  YS02001745YS02001748 CONDUIT    496.49     0  02:25      2.08    0.19    0.84
  YS02001748YS02001751 CONDUIT    496.80     0  02:25      1.59    0.25    1.00
  YS02001751YS02001754 CONDUIT    497.48     0  02:25      1.27    0.24    1.00
  YS02001754YS02001757 CONDUIT    496.52     0  02:25      0.63    0.20    1.00
  YS02001757CaochengTiaoxuchi CONDUIT   3509.09     0  02:24      6.96    1.52    1.00
  YS02001759YS02001757 CONDUIT   1413.48     0  02:23      1.80    1.00    1.00
  YS02001762YS02001759 CONDUIT    820.08     0  02:27      1.04    0.94    1.00
  YS02001765YS02001762 CONDUIT    819.09     0  02:27      1.04    0.77    1.00
  YS02001767YS02001765 CONDUIT    817.38     0  02:27      1.04    1.03    1.00
  YS02001770YS02001767 CONDUIT    815.94     0  02:27      1.04    3.23    1.00
  YS02001774YS02001770 CONDUIT    266.29     0  02:25      0.34    0.17    1.00
  YS02001779YS02001774 CONDUIT    267.34     0  02:25      0.34    0.13    1.00
  YS02001783YS02001784 CONDUIT   1161.76     0  02:25      2.31    1.60    1.00
  YS02001784YS02001785 CONDUIT   1162.42     0  02:24      2.31    2.71    1.00
  YS02001786YS02001788 CONDUIT   1162.98     0  02:24      2.48    2.24    1.00
  YS02001788YS02001790 CONDUIT   1183.02     0  02:22      2.74    0.87    1.00
  YS02001790YS02001791 CONDUIT   1285.43     0  02:28      3.44    1.40    1.00
  YS02001791YS02001793 CONDUIT   1238.70     0  02:29      6.70    0.53    1.00
  YS02001793JiankangQianchi CONDUIT   1254.29     0  02:36     24.35    0.10    1.00
  YS02001882YS02001884 CONDUIT     26.62     0  02:09      0.15    0.03    1.00
  YS02001884YS02001887 CONDUIT     34.23     0  02:08      0.11    0.05    1.00
  YS02001887YS02001890 CONDUIT    715.95     0  02:25      0.91    1.23    1.00
  YS02001890YS02001895 CONDUIT    518.20     0  02:26      0.66    0.24    1.00
  YS02001895YS02001898 CONDUIT    518.96     0  02:26      0.66    0.90    1.00
  YS02001898YS02001901 CONDUIT    518.62     0  02:26      0.66    0.33    1.00
  YS02001901YS02001904 CONDUIT    518.33     0  02:26      0.66    0.80    1.00
  YS02001904YS02001907 CONDUIT    518.20     0  02:26      0.66    0.18    1.00
  YS02001907YS02006553 CONDUIT    795.70     0  02:38      0.88    0.94    1.00
  YS02001910YS02001907 CONDUIT   1353.05     0  02:25      1.72    0.76    1.00
  YS02001915YS02001910 CONDUIT   1352.81     0  02:25      1.72    0.67    1.00
  YS02001918YS02001915 CONDUIT    463.21     0  02:25      0.59    0.26    1.00
  YS02001920YS02001918 CONDUIT    462.37     0  02:25      0.64    0.45    1.00
  YS02001923YS02001920 CONDUIT    459.09     0  02:25      0.69    0.21    1.00
  YS02001926YS02001923 CONDUIT    456.62     0  02:25      0.93    0.65    1.00
  YS02001929YS02001926 CONDUIT    455.48     0  02:25      1.05    0.22    1.00
  YS02006553YS02006556 CONDUIT    795.31     0  02:39      1.01    0.68    1.00
  YS02006556YS02006558 CONDUIT    796.13     0  02:39      1.01    0.63    1.00
  YS02006558YS02006561 CONDUIT   1161.18     0  02:25      4.11    2.57    1.00
  YS02006561YS02001783 CONDUIT   1161.29     0  02:24      2.31    0.60    1.00
  YS02163301YS02001633 CONDUIT    937.47     0  02:12      1.19    0.88    1.00
  YS02163601YS02164001 CONDUIT   1360.27     0  02:12      1.73    1.21    1.00
  YS02164001YS02001641 CONDUIT   1358.36     0  02:12      1.73    1.85    1.00
  YSB1154YSB6556       CONDUIT    408.87     0  02:25      1.06    0.74    1.00
  YSB1171HS02004479    CONDUIT    381.39     0  02:14      0.76    0.25    1.00
  YSB1174YSB1171       CONDUIT    336.17     0  02:25      0.87    0.52    1.00
  YSB6556YSB1171       CONDUIT    409.00     0  02:25      1.06    0.42    1.00
  CC-R1                PUMP       683.00     0  00:00              1.00
  CC-R2                PUMP       683.00     0  00:00              1.00
  CC-S1                PUMP       200.00     0  00:00              1.00
  CC-S2                PUMP       200.00     0  00:00              1.00
  JK-R1                PUMP      1000.00     0  00:00              1.00
  JK-R2                PUMP      1000.00     0  02:30              1.00
  JK-S                 PUMP       300.00     0  01:20              1.00
  XR-1                 PUMP        95.00     0  00:10              1.00
  XR-2                 PUMP        95.00     0  00:29              1.00
  XR-3                 PUMP         0.00     0  00:00              0.00
  XR-4                 PUMP         0.00     0  00:00              0.00
  
  
  ***************************
  Flow Classification Summary
  ***************************
  
  -------------------------------------------------------------------------------------
                      Adjusted    ---------- Fraction of Time in Flow Class ---------- 
                       /Actual         Up    Down  Sub   Sup   Up    Down  Norm  Inlet 
  Conduit               Length    Dry  Dry   Dry   Crit  Crit  Crit  Crit  Ltd   Ctrl  
  -------------------------------------------------------------------------------------
  1                       1.00   0.00  0.00  0.00  0.00  1.00  0.00  0.00  0.48  0.00
  HS02004478WS02006287    1.00   0.14  0.00  0.00  0.55  0.31  0.00  0.00  0.43  0.00
  HS02004479HS02004480    1.00   0.03  0.00  0.00  0.97  0.00  0.00  0.00  0.14  0.00
  HS02004480HS02004478    1.00   0.13  0.00  0.00  0.44  0.00  0.00  0.43  0.00  0.00
  HS02004770HS02004777    1.00   0.00  0.12  0.00  0.88  0.00  0.00  0.00  0.03  0.00
  HS02004777HS02004785    1.00   0.00  0.00  0.00  1.00  0.00  0.00  0.00  0.15  0.00
  HS02004785HS02004788    1.00   0.00  0.00  0.00  1.00  0.00  0.00  0.00  0.00  0.00
  HS02004788HS02004792    1.00   0.00  0.00  0.00  1.00  0.00  0.00  0.00  0.84  0.00
  HS02004792HS02004799    1.00   0.00  0.00  0.00  0.99  0.01  0.00  0.00  0.77  0.00
  HS02004799HS02004480    1.00   0.00  0.03  0.00  0.86  0.00  0.11  0.00  0.00  0.00
  HS02004802HS02004478    1.00   0.13  0.00  0.00  0.87  0.00  0.00  0.00  0.03  0.00
  HS02004807HS02004802    1.00   0.12  0.00  0.00  0.86  0.00  0.00  0.01  0.00  0.00
  HS02004817HS02004807    1.00   0.00  0.12  0.00  0.88  0.00  0.00  0.00  0.02  0.00
  HS02004817HS02004824    1.00   0.00  0.00  0.00  1.00  0.00  0.00  0.00  0.72  0.00
  HS02004824HS02004830    1.00   0.00  0.00  0.00  1.00  0.00  0.00  0.00  0.02  0.00
  HS02004830HS02004837    1.00   0.00  0.00  0.00  1.00  0.00  0.00  0.00  0.80  0.00
  HS02004837HS02004842    1.00   0.00  0.00  0.00  1.00  0.00  0.00  0.00  0.14  0.00
  HS02004842HS02004848    1.00   0.00  0.12  0.00  0.88  0.00  0.00  0.00  0.38  0.00
  HS02004848HS02004852    1.00   0.12  0.00  0.00  0.88  0.00  0.00  0.00  0.59  0.00
  HS02004852HS02004856    1.00   0.12  0.01  0.00  0.87  0.00  0.00  0.00  0.52  0.00
  HS02004856HS02004862    1.00   0.00  0.14  0.00  0.86  0.00  0.00  0.00  0.63  0.00
  HS02004862HS02004870    1.00   0.00  0.00  0.00  1.00  0.00  0.00  0.00  0.03  0.00
  HS02004870HS02004876    1.00   0.00  0.00  0.00  0.99  0.01  0.00  0.00  0.78  0.00
  HS02004876HS02004881    1.00   0.01  0.00  0.00  0.73  0.25  0.00  0.00  0.00  0.00
  HS02004881HS02006253    1.00   0.02  0.03  0.00  0.69  0.03  0.00  0.22  0.44  0.00
  HS02004901HS02004770    1.00   0.12  0.00  0.00  0.88  0.00  0.00  0.00  0.00  0.00
  WS02001211WS02001212    1.00   0.00  0.02  0.00  0.98  0.00  0.00  0.00  0.00  0.00
  WS02001212WS02001213    1.00   0.02  0.00  0.00  0.66  0.00  0.32  0.00  0.00  0.00
  WS02001213WS02003059    1.00   0.00  0.00  0.00  1.00  0.00  0.00  0.00  0.00  0.00
  WS02003059WS02003060    1.00   0.00  0.00  0.00  1.00  0.00  0.00  0.00  0.04  0.00
  WS02003060WS02003069    1.00   0.00  0.00  0.00  0.96  0.04  0.00  0.00  0.22  0.00
  WS02003066WSF200        1.00   0.09  0.00  0.00  0.00  0.91  0.00  0.00  0.58  0.00
  WS02003067WS02003066    1.00   0.07  0.02  0.00  0.92  0.00  0.00  0.00  0.00  0.00
  WS02003069WS02003072    1.00   0.00  0.00  0.00  1.00  0.00  0.00  0.00  0.39  0.00
  WS02003072WS02003073    1.00   0.00  0.00  0.00  0.00  0.00  0.00  1.00  0.00  0.00
  WS02004138WS02004139    1.00   0.01  0.00  0.00  0.98  0.01  0.00  0.00  0.97  0.00
  WS02004139WS02001211    1.00   0.00  0.00  0.00  1.00  0.00  0.00  0.00  0.01  0.00
  WS02004401WS02004402    1.00   0.02  0.00  0.00  0.98  0.00  0.00  0.00  0.00  0.00
  WS02004402WS02004403    1.00   0.02  0.00  0.00  0.98  0.00  0.00  0.00  0.00  0.00
  WS02004403WS02004404    1.00   0.00  0.02  0.00  0.98  0.00  0.00  0.00  0.00  0.00
  WS02004404WS02004405    1.00   0.00  0.00  0.00  1.00  0.00  0.00  0.00  0.01  0.00
  WS02004405WS02004406    1.00   0.00  0.00  0.00  1.00  0.00  0.00  0.00  0.00  0.00
  WS02004406WS02004407    1.00   0.00  0.03  0.00  0.97  0.00  0.00  0.00  0.00  0.00
  WS02004407WS02004409    1.00   0.03  0.00  0.00  0.95  0.02  0.00  0.00  0.71  0.00
  WS02004409WS02004410    1.00   0.03  0.00  0.00  0.97  0.00  0.00  0.00  0.00  0.00
  WS02004410WS02004411    1.00   0.03  0.00  0.00  0.97  0.00  0.00  0.00  0.00  0.00
  WS02004411WS02004412    1.00   0.03  0.00  0.00  0.97  0.00  0.00  0.00  0.00  0.00
  WS02004412WS02004413    1.00   0.03  0.00  0.00  0.96  0.01  0.00  0.00  0.00  0.00
  WS02004413WS02003067    1.00   0.04  0.03  0.00  0.00  0.00  0.93  0.00  0.00  0.00
  WS02006109WS02006110    1.00   0.00  0.00  0.00  0.99  0.00  0.01  0.00  0.00  0.00
  WS02006110WS02006113    1.00   0.00  0.01  0.00  0.99  0.00  0.00  0.00  0.00  0.00
  WS02006111WS02006112    1.00   0.02  0.00  0.00  0.98  0.00  0.00  0.00  0.67  0.00
  WS02006112WS02006115    1.00   0.02  0.00  0.00  0.98  0.00  0.00  0.00  0.00  0.00
  WS02006113WS02006111    1.00   0.01  0.00  0.00  0.26  0.73  0.00  0.00  0.13  0.00
  WS02006115WS02006116    1.00   0.02  0.00  0.00  0.97  0.00  0.00  0.01  0.00  0.00
  WS02006116WS02004401    1.00   0.02  0.00  0.00  0.98  0.00  0.00  0.00  0.00  0.00
  WS02006228WS02006109    1.00   0.00  0.00  0.00  1.00  0.00  0.00  0.00  0.01  0.00
  WS02006229WS02006228    1.00   0.00  0.00  0.00  0.99  0.00  0.00  0.01  0.00  0.00
  WS02006230WS02006229    1.00   0.00  0.00  0.00  0.99  0.00  0.00  0.01  0.01  0.00
  WS02006231WS02006230    1.00   0.01  0.00  0.00  0.68  0.00  0.32  0.00  0.00  0.00
  WS02006232WS02006231    1.00   0.00  0.00  0.00  0.99  0.00  0.00  0.00  0.00  0.00
  WS02006234WS02006232    1.00   0.00  0.00  0.00  1.00  0.00  0.00  0.00  0.02  0.00
  WS02006235WS02006234    1.00   0.00  0.00  0.00  0.96  0.00  0.04  0.00  0.00  0.00
  WS02006238WS02006235    1.00   0.00  0.00  0.00  1.00  0.00  0.00  0.00  0.00  0.00
  WS02006239WS02006238    1.00   0.00  0.00  0.00  1.00  0.00  0.00  0.00  0.06  0.00
  WS02006240WS02006239    1.00   0.00  0.00  0.00  0.94  0.00  0.00  0.06  0.06  0.00
  WS02006242WS02006240    1.00   0.00  0.00  0.00  0.99  0.00  0.01  0.00  0.00  0.00
  WS02006243WS02006242    1.00   0.00  0.00  0.00  0.99  0.00  0.00  0.00  0.31  0.00
  WS02006245WS02006243    1.00   0.00  0.00  0.00  0.93  0.00  0.00  0.07  0.01  0.00
  WS02006247WS02006245    1.00   0.00  0.00  0.00  0.98  0.00  0.00  0.02  0.00  0.00
  WS02006248WS02006247    1.00   0.00  0.00  0.00  0.99  0.00  0.00  0.01  0.31  0.00
  WS02006249WS02006248    1.00   0.00  0.00  0.00  0.86  0.00  0.14  0.00  0.00  0.00
  WS02006251WS02006249    1.00   0.00  0.00  0.00  1.00  0.00  0.00  0.00  0.30  0.00
  WS02006252WS02006251    1.00   0.00  0.06  0.00  0.26  0.00  0.68  0.00  0.00  0.00
  WS02006253WS02006251    1.00   0.00  0.00  0.00  1.00  0.00  0.00  0.00  0.00  0.00
  WS02006256WS02006235    1.00   0.00  0.00  0.00  0.99  0.00  0.00  0.00  0.00  0.00
  WS02006280WS02006229    1.00   0.13  0.00  0.00  0.24  0.02  0.00  0.61  0.00  0.00
  WS02006284WS02006280    1.00   0.13  0.00  0.00  0.17  0.02  0.00  0.68  0.00  0.00
  WS02006287WS02006284    1.00   0.11  0.03  0.00  0.34  0.52  0.00  0.00  0.51  0.00
  WSF200WS02003060        1.00   0.00  0.09  0.00  0.39  0.53  0.00  0.00  0.38  0.00
  YS02001580YS02001583    1.00   0.29  0.36  0.00  0.35  0.00  0.00  0.00  0.50  0.00
  YS02001583YS02001586    1.00   0.14  0.40  0.00  0.46  0.00  0.00  0.00  0.50  0.00
  YS02001586YS02001590    1.00   0.12  0.00  0.00  0.76  0.03  0.00  0.08  0.50  0.00
  YS02001590YS02001593    1.00   0.12  0.00  0.00  0.18  0.00  0.69  0.00  0.00  0.00
  YS02001593YS02001596    1.00   0.13  0.00  0.00  0.21  0.01  0.00  0.65  0.03  0.00
  YS02001596YS02001600    1.00   0.13  0.00  0.00  0.30  0.03  0.00  0.54  0.06  0.00
  YS02001600YS02001601    1.00   0.13  0.00  0.00  0.87  0.00  0.00  0.00  0.44  0.00
  YS02001601YS02001602    1.00   0.12  0.00  0.00  0.87  0.00  0.00  0.00  0.00  0.00
  YS02001602YS02001605    1.00   0.13  0.00  0.00  0.87  0.00  0.00  0.00  0.00  0.00
  YS02001605YS02001607    1.00   0.13  0.00  0.00  0.87  0.00  0.00  0.00  0.00  0.00
  YS02001607YS02001610    1.00   0.13  0.00  0.00  0.87  0.00  0.00  0.00  0.01  0.00
  YS02001610YS02001613    1.00   0.13  0.00  0.00  0.87  0.00  0.00  0.00  0.00  0.00
  YS02001613YS02001616    1.00   0.13  0.00  0.00  0.87  0.00  0.00  0.00  0.00  0.00
  YS02001616YS02001619    1.00   0.12  0.00  0.00  0.88  0.00  0.00  0.00  0.00  0.00
  YS02001619YS02001622    1.00   0.12  0.00  0.00  0.88  0.00  0.00  0.00  0.05  0.00
  YS02001622YS02001625    1.00   0.12  0.00  0.00  0.88  0.00  0.00  0.00  0.04  0.00
  YS02001625YS02001629    1.00   0.13  0.02  0.00  0.24  0.00  0.61  0.00  0.00  0.00
  YS02001629YS02163301    1.00   0.14  0.00  0.00  0.86  0.00  0.00  0.00  0.00  0.00
  YS02001633YS02163601    1.00   0.00  0.00  0.00  1.00  0.00  0.00  0.00  0.19  0.00
  YS02001641YS02001644    1.00   0.00  0.00  0.00  1.00  0.00  0.00  0.00  0.00  0.00
  YS02001644YS02001647    1.00   0.00  0.14  0.00  0.86  0.00  0.00  0.00  0.00  0.00
  YS02001647YS02001649    1.00   0.00  0.14  0.00  0.60  0.25  0.00  0.00  0.41  0.00
  YS02001649YS02001757    1.00   0.00  0.00  0.00  0.86  0.14  0.00  0.00  0.58  0.00
  YS02001652YS02001649    1.00   0.00  0.00  0.00  0.98  0.02  0.00  0.00  0.56  0.00
  YS02001655YS02001652    1.00   0.00  0.00  0.00  0.45  0.01  0.00  0.54  0.10  0.00
  YS02001658YS02001655    1.00   0.00  0.13  0.00  0.61  0.25  0.00  0.00  0.56  0.00
  YS02001661YS02001658    1.00   0.13  0.00  0.00  0.26  0.61  0.00  0.00  0.59  0.00
  YS02001664YS02001661    1.00   0.12  0.00  0.00  0.67  0.21  0.00  0.00  0.81  0.00
  YS02001745YS02001748    1.00   0.00  0.00  0.00  0.14  0.00  0.00  0.85  0.09  0.00
  YS02001748YS02001751    1.00   0.00  0.00  0.00  0.77  0.23  0.00  0.00  0.63  0.00
  YS02001751YS02001754    1.00   0.00  0.00  0.00  0.41  0.01  0.00  0.57  0.08  0.00
  YS02001754YS02001757    1.00   0.00  0.00  0.00  1.00  0.00  0.00  0.00  0.64  0.00
  YS02001757CaochengTiaoxuchi    1.00   0.00  0.00  0.00  0.61  0.39  0.00  0.00  0.21  0.00
  YS02001759YS02001757    1.00   0.00  0.00  0.00  1.00  0.00  0.00  0.00  0.50  0.00
  YS02001762YS02001759    1.00   0.00  0.00  0.00  1.00  0.00  0.00  0.00  0.04  0.00
  YS02001765YS02001762    1.00   0.00  0.00  0.00  1.00  0.00  0.00  0.00  0.52  0.00
  YS02001767YS02001765    1.00   0.00  0.00  0.00  1.00  0.00  0.00  0.00  0.00  0.00
  YS02001770YS02001767    1.00   0.00  0.00  0.00  1.00  0.00  0.00  0.00  0.00  0.00
  YS02001774YS02001770    1.00   0.00  0.13  0.00  0.87  0.00  0.00  0.00  0.03  0.00
  YS02001779YS02001774    1.00   0.00  0.00  0.00  1.00  0.00  0.00  0.00  0.58  0.00
  YS02001783YS02001784    1.00   0.00  0.15  0.00  0.85  0.00  0.00  0.00  0.39  0.00
  YS02001784YS02001785    1.00   0.00  0.00  0.00  1.00  0.00  0.00  0.00  0.21  0.00
  YS02001786YS02001788    1.00   0.00  0.00  0.00  0.64  0.36  0.00  0.00  0.00  0.00
  YS02001788YS02001790    1.00   0.00  0.00  0.00  0.24  0.76  0.00  0.00  0.70  0.00
  YS02001790YS02001791    1.00   0.00  0.00  0.00  0.06  0.94  0.00  0.00  0.18  0.00
  YS02001791YS02001793    1.00   0.00  0.00  0.00  0.06  0.94  0.00  0.00  0.02  0.00
  YS02001793JiankangQianchi    1.00   0.00  0.00  0.00  0.22  0.78  0.00  0.00  0.25  0.00
  YS02001882YS02001884    1.00   0.14  0.00  0.00  0.86  0.00  0.00  0.00  0.00  0.00
  YS02001884YS02001887    1.00   0.08  0.04  0.00  0.88  0.00  0.00  0.00  0.00  0.00
  YS02001887YS02001890    1.00   0.00  0.00  0.00  0.97  0.00  0.02  0.00  0.00  0.00
  YS02001890YS02001895    1.00   0.00  0.14  0.00  0.86  0.00  0.00  0.00  0.00  0.00
  YS02001895YS02001898    1.00   0.14  0.00  0.00  0.84  0.00  0.02  0.00  0.00  0.00
  YS02001898YS02001901    1.00   0.14  0.00  0.00  0.86  0.00  0.00  0.00  0.01  0.00
  YS02001901YS02001904    1.00   0.14  0.00  0.00  0.86  0.00  0.00  0.00  0.00  0.00
  YS02001904YS02001907    1.00   0.00  0.14  0.00  0.86  0.00  0.00  0.00  0.00  0.00
  YS02001907YS02006553    1.00   0.00  0.02  0.00  0.98  0.00  0.00  0.00  0.00  0.00
  YS02001910YS02001907    1.00   0.00  0.00  0.00  0.98  0.00  0.00  0.02  0.15  0.00
  YS02001915YS02001910    1.00   0.00  0.00  0.00  0.97  0.03  0.00  0.00  0.18  0.00
  YS02001918YS02001915    1.00   0.00  0.00  0.00  0.98  0.02  0.00  0.00  0.62  0.00
  YS02001920YS02001918    1.00   0.00  0.00  0.00  1.00  0.00  0.00  0.00  0.00  0.00
  YS02001923YS02001920    1.00   0.00  0.00  0.00  1.00  0.00  0.00  0.00  0.87  0.00
  YS02001926YS02001923    1.00   0.00  0.10  0.00  0.08  0.00  0.82  0.00  0.00  0.00
  YS02001929YS02001926    1.00   0.00  0.12  0.00  0.88  0.00  0.00  0.00  0.75  0.00
  YS02006553YS02006556    1.00   0.01  0.00  0.00  0.99  0.00  0.00  0.00  0.04  0.00
  YS02006556YS02006558    1.00   0.00  0.00  0.00  1.00  0.00  0.00  0.00  0.00  0.00
  YS02006558YS02006561    1.00   0.15  0.00  0.00  0.08  0.77  0.00  0.00  0.23  0.00
  YS02006561YS02001783    1.00   0.15  0.00  0.00  0.16  0.68  0.00  0.00  0.55  0.00
  YS02163301YS02001633    1.00   0.00  0.14  0.00  0.86  0.00  0.00  0.00  0.00  0.00
  YS02163601YS02164001    1.00   0.00  0.10  0.00  0.90  0.00  0.00  0.00  0.00  0.00
  YS02164001YS02001641    1.00   0.00  0.10  0.00  0.90  0.00  0.00  0.00  0.07  0.00
  YSB1154YSB6556          1.00   0.12  0.00  0.00  0.88  0.00  0.00  0.00  0.02  0.00
  YSB1171HS02004479       1.00   0.03  0.00  0.00  0.94  0.01  0.00  0.03  0.13  0.00
  YSB1174YSB1171          1.00   0.05  0.05  0.00  0.89  0.00  0.00  0.00  0.00  0.00
  YSB6556YSB1171          1.00   0.03  0.09  0.00  0.88  0.00  0.00  0.00  0.00  0.00
  
  
  *************************
  Conduit Surcharge Summary
  *************************
  
  ----------------------------------------------------------------------------
                                                           Hours        Hours 
                         --------- Hours Full --------   Above Full   Capacity
  Conduit                Both Ends  Upstream  Dnstream   Normal Flow   Limited
  ----------------------------------------------------------------------------
  HS02004478WS02006287        0.59      0.59      0.82      0.01         0.01
  HS02004479HS02004480        0.81      0.81      0.84      0.01         0.01
  HS02004480HS02004478        0.71      0.81      0.71      1.90         0.71
  HS02004770HS02004777        0.68      0.68      0.69      0.14         0.10
  HS02004777HS02004785        0.63      0.63      0.69      0.01         0.01
  HS02004785HS02004788        0.62      0.63      0.62      1.65         0.58
  HS02004788HS02004792        0.62      0.62      0.76      0.01         0.01
  HS02004792HS02004799        0.76      0.76      0.94      0.01         0.01
  HS02004799HS02004480        0.81      0.81      0.94      1.07         0.01
  HS02004802HS02004478        0.74      0.74      0.83      0.10         0.01
  HS02004807HS02004802        0.79      0.79      0.82      0.32         0.33
  HS02004817HS02004807        0.79      0.79      1.46      0.01         0.01
  HS02004817HS02004824        0.61      0.61      1.46      0.01         0.01
  HS02004824HS02004830        0.58      0.58      0.61      0.01         0.01
  HS02004830HS02004837        0.52      0.52      0.58      0.01         0.01
  HS02004837HS02004842        0.52      0.52      0.70      0.01         0.01
  HS02004842HS02004848        0.48      0.48      0.70      0.01         0.01
  HS02004848HS02004852        0.48      0.48      0.50      0.01         0.01
  HS02004852HS02004856        0.50      0.50      0.52      0.01         0.01
  HS02004856HS02004862        0.48      0.48      0.52      0.01         0.01
  HS02004862HS02004870        0.52      0.52      0.53      0.21         0.24
  HS02004870HS02004876        0.53      0.53      0.59      0.01         0.01
  HS02004876HS02004881        0.56      0.59      0.56      1.69         0.56
  HS02004881HS02006253        0.56      0.56      1.61      0.01         0.01
  HS02004901HS02004770        0.68      0.68      0.69      0.05         0.01
  WS02003072WS02003073        0.01      0.01      0.01      3.24         0.01
  WS02004401WS02004402        1.71      1.71      1.72      1.63         1.62
  WS02004402WS02004403        1.72      1.72      1.73      1.71         1.70
  WS02004403WS02004404        1.73      1.73      1.80      0.01         0.03
  WS02004404WS02004405        1.78      1.80      1.78      4.07         1.78
  WS02004405WS02004406        1.77      1.78      1.77      1.89         1.77
  WS02004406WS02004407        0.01      0.01      1.77      0.01         0.01
  WS02004407WS02004409        0.01      0.01      1.34      0.01         0.01
  WS02004409WS02004410        1.24      1.34      1.24      1.66         1.24
  WS02004410WS02004411        1.11      1.24      1.11      1.68         1.11
  WS02004411WS02004412        0.99      1.11      0.99      1.70         0.99
  WS02004412WS02004413        0.99      0.99      1.59      0.01         0.01
  WS02004413WS02003067        0.01      0.01      1.59      0.01         0.01
  WS02006109WS02006110        1.87      1.87      2.56      1.87         0.01
  WS02006110WS02006113        1.59      1.59      2.50      0.35         0.01
  WS02006111WS02006112        1.58      1.58      3.18      0.01         0.01
  WS02006112WS02006115        1.66      1.66      1.93      0.01         0.01
  WS02006113WS02006111        1.59      1.59      1.59      1.63         1.59
  WS02006115WS02006116        1.67      1.67      1.67      1.66         1.65
  WS02006116WS02004401        1.70      1.70      1.71      1.69         1.68
  WS02006228WS02006109        2.43      2.56      2.43      3.44         2.43
  WS02006229WS02006228        2.40      2.45      2.40      3.19         2.40
  WS02006230WS02006229        2.67      2.93      2.67      4.35         1.35
  WS02006231WS02006230        1.79      1.79      1.80      3.96         1.27
  WS02006232WS02006231        1.79      1.79      2.09      0.01         0.19
  WS02006234WS02006232        1.86      1.86      2.09      0.01         0.01
  WS02006235WS02006234        1.81      1.81      1.90      3.65         1.24
  WS02006238WS02006235        1.94      1.94      2.04      0.01         0.44
  WS02006239WS02006238        1.96      1.98      1.98      1.48         0.18
  WS02006240WS02006239        1.85      1.87      1.86      1.47         0.11
  WS02006242WS02006240        1.84      1.85      2.06      1.71         1.12
  WS02006243WS02006242        1.84      1.84      1.97      0.01         0.01
  WS02006245WS02006243        1.81      1.82      1.82      0.46         0.11
  WS02006247WS02006245        1.80      1.84      1.80      3.22         0.27
  WS02006248WS02006247        1.77      1.77      1.83      0.01         0.01
  WS02006249WS02006248        1.75      1.75      1.79      1.70         0.01
  WS02006251WS02006249        1.77      1.78      1.79      1.98         1.60
  WS02006252WS02006251        2.19      2.19      2.21      0.95         0.01
  WS02006253WS02006251        1.77      1.77      1.81      0.98         0.02
  WS02006256WS02006235        3.91      3.92      5.67      0.64         0.01
  WS02006280WS02006229        0.99      0.99      1.18      0.01         0.01
  WS02006284WS02006280        0.85      0.85      0.97      0.01         0.01
  WS02006287WS02006284        0.70      0.70      0.86      0.38         0.38
  YS02001580YS02001583        0.75      0.75      0.81      0.01         0.01
  YS02001583YS02001586        0.76      0.76      0.90      0.01         0.01
  YS02001586YS02001590        0.91      0.91      1.00      0.01         0.01
  YS02001590YS02001593        1.00      1.00      1.02      1.00         0.01
  YS02001593YS02001596        1.00      1.00      1.13      0.01         0.01
  YS02001596YS02001600        1.20      1.20      1.31      0.01         0.01
  YS02001600YS02001601        1.37      1.37      1.67      0.01         0.01
  YS02001601YS02001602        1.56      1.56      1.71      1.32         0.01
  YS02001602YS02001605        1.50      1.50      1.56      2.52         0.01
  YS02001605YS02001607        1.45      1.50      1.45      1.62         1.44
  YS02001607YS02001610        0.97      0.97      1.00      0.01         0.01
  YS02001610YS02001613        0.97      0.97      1.00      0.01         0.01
  YS02001613YS02001616        0.91      0.91      0.97      0.01         0.01
  YS02001616YS02001619        0.89      0.89      0.91      0.01         0.02
  YS02001619YS02001622        0.88      0.89      0.88      1.02         0.86
  YS02001622YS02001625        0.88      0.88      1.11      0.01         0.01
  YS02001625YS02001629        0.77      0.77      1.11      0.01         0.01
  YS02001629YS02163301        1.10      1.10      1.11      0.39         0.35
  YS02001633YS02163601        1.13      1.13      1.17      0.58         0.57
  YS02001641YS02001644        1.02      1.05      1.02      1.73         1.00
  YS02001644YS02001647        0.63      0.63      1.02      0.04         0.01
  YS02001647YS02001649        0.63      0.63      0.84      0.01         0.01
  YS02001649YS02001757        0.83      0.84      0.90      0.52         0.41
  YS02001652YS02001649        0.55      0.55      0.84      0.01         0.01
  YS02001655YS02001652        0.35      0.35      0.52      0.01         0.01
  YS02001658YS02001655        0.21      0.21      0.35      0.01         0.01
  YS02001661YS02001658        0.01      0.01      0.21      0.01         0.01
  YS02001664YS02001661        0.01      0.01      0.01      0.01         0.01
  YS02001745YS02001748        0.01      0.01      0.07      0.01         0.01
  YS02001748YS02001751        0.12      0.12      0.23      0.01         0.01
  YS02001751YS02001754        0.23      0.23      0.37      0.01         0.01
  YS02001754YS02001757        0.42      0.42      0.90      0.01         0.01
  YS02001757CaochengTiaoxuchi        0.64      0.90      1.49      0.55         0.20
  YS02001759YS02001757        0.80      0.80      0.90      0.04         0.05
  YS02001762YS02001759        0.71      0.71      0.80      0.01         0.04
  YS02001765YS02001762        0.60      0.60      0.71      0.01         0.01
  YS02001767YS02001765        0.56      0.56      0.60      0.03         0.08
  YS02001770YS02001767        0.56      0.56      0.56      0.68         0.46
  YS02001774YS02001770        0.54      0.54      0.65      0.01         0.01
  YS02001779YS02001774        0.38      0.38      0.65      0.01         0.01
  YS02001783YS02001784        0.62      0.65      0.62      0.87         0.62
  YS02001784YS02001785        0.49      0.62      0.49      1.20         0.49
  YS02001786YS02001788        0.08      0.49      0.08      1.03         0.08
  YS02001788YS02001790        0.08      0.08      0.27      0.01         0.01
  YS02001790YS02001791        0.26      0.27      0.27      0.61         0.08
  YS02001791YS02001793        0.27      0.27      0.41      0.01         0.01
  YS02001793JiankangQianchi        0.37      0.37      1.02      0.01         0.01
  YS02001882YS02001884        0.58      0.58      0.60      0.01         0.01
  YS02001884YS02001887        0.63      0.63      0.64      0.01         0.01
  YS02001887YS02001890        0.66      0.66      0.67      0.09         0.01
  YS02001890YS02001895        0.57      0.57      0.70      0.01         0.01
  YS02001895YS02001898        0.56      0.56      0.57      0.01         0.01
  YS02001898YS02001901        0.57      0.57      0.62      0.01         0.01
  YS02001901YS02001904        0.61      0.61      0.62      0.01         0.01
  YS02001904YS02001907        0.61      0.61      1.01      0.01         0.01
  YS02001907YS02006553        1.23      1.23      1.29      0.01         0.01
  YS02001910YS02001907        0.69      0.69      0.98      0.01         0.01
  YS02001915YS02001910        0.58      0.58      0.69      0.01         0.01
  YS02001918YS02001915        0.48      0.48      0.58      0.01         0.01
  YS02001920YS02001918        0.48      0.48      0.49      0.01         0.01
  YS02001923YS02001920        0.42      0.42      0.49      0.01         0.01
  YS02001926YS02001923        0.07      0.07      0.11      0.01         0.01
  YS02001929YS02001926        0.01      0.01      0.11      0.01         0.01
  YS02006553YS02006556        0.82      0.82      1.02      0.01         0.01
  YS02006556YS02006558        0.93      0.93      1.03      0.01         0.01
  YS02006558YS02006561        0.52      0.80      0.52      1.15         0.52
  YS02006561YS02001783        0.44      0.44      0.65      0.01         0.01
  YS02163301YS02001633        1.11      1.11      1.15      0.01         0.01
  YS02163601YS02164001        1.06      1.06      1.17      0.24         0.01
  YS02164001YS02001641        1.05      1.06      1.05      0.92         0.83
  YSB1154YSB6556              0.90      0.90      1.11      0.01         0.01
  YSB1171HS02004479           0.75      0.75      1.11      0.01         0.01
  YSB1174YSB1171              0.99      0.99      1.38      0.01         0.01
  YSB6556YSB1171              0.90      0.90      1.53      0.01         0.01
  
  
  ***************
  Pumping Summary
  ***************
  
  ---------------------------------------------------------------------------------------------------------
                                                  Min       Avg       Max     Total     Power    % Time Off
                        Percent   Number of      Flow      Flow      Flow    Volume     Usage    Pump Curve
  Pump                 Utilized   Start-Ups       LPS       LPS       LPS  10^6 ltr     Kw-hr    Low   High
  ---------------------------------------------------------------------------------------------------------
  CC-R1                   80.51           7      0.00    536.57    683.00     8.271    140.46    0.0   72.6
  CC-R2                   44.51           9      0.00    524.87    683.00     4.463     76.40    0.0   70.8
  CC-S1                   66.75          10      0.00    167.52    200.00     2.130     15.40    0.0   51.8
  CC-S2                   30.60           8      0.00    123.09    200.00     0.817      7.14    0.0   67.5
  JK-R1                   58.23          10      0.00    255.52   1000.00     3.509     24.86    0.0    0.0
  JK-R2                   16.52           4      0.00    367.90   1000.00     1.193      4.44    0.0    0.0
  JK-S                    50.10           9      0.00    123.69    300.00     1.313     22.21    0.0    0.0
  XR-1                    97.21           1      0.00     95.00     95.00     1.995      8.84    0.0    0.0
  XR-2                    91.94           1      0.00     95.00     95.00     1.887      8.00    0.0    0.0
  XR-3                     0.00           0      0.00      0.00      0.00     0.000      0.00    0.0    0.0
  XR-4                     0.00           0      0.00      0.00      0.00     0.000      0.00    0.0    0.0
  

  Analysis begun on:  Mon Aug 22 16:56:32 2022
  Analysis ended on:  Mon Aug 22 16:56:36 2022
  Total elapsed time: 00:00:04