
  EPA STORM WATER MANAGEMENT MODEL - VERSION 5.1 (Build 5.3.0.dev0)
  --------------------------------------------------------------

  WARNING 04: minimum elevation drop used for Conduit WS02004404WS02004405
  WARNING 03: negative offset ignored for Link YS02001904YS02001907
  
  *********************************************************
  NOTE: The summary statistics displayed in this report are
  based on results found at every computational time step,  
  not just on results from each reporting time step.
  *********************************************************
  
  ****************
  Analysis Options
  ****************
  Flow Units ............... LPS
  Process Models:
    Rainfall/Runoff ........ YES
    RDII ................... NO
    Snowmelt ............... NO
    Groundwater ............ NO
    Flow Routing ........... YES
    Ponding Allowed ........ NO
    Water Quality .......... NO
  Infiltration Method ...... HORTON
  Flow Routing Method ...... DYNWAVE
  Surcharge Method ......... EXTRAN
  Starting Date ............ 01/01/2000 00:00:00
  Ending Date .............. 01/01/2000 06:00:00
  Antecedent Dry Days ...... 8.0
  Report Time Step ......... 00:01:00
  Wet Time Step ............ 00:01:00
  Dry Time Step ............ 00:01:00
  Routing Time Step ........ 30.00 sec
  Variable Time Step ....... YES
  Maximum Trials ........... 8
  Number of Threads ........ 4
  Head Tolerance ........... 0.001500 m
  
  
  **************************        Volume         Depth
  Runoff Quantity Continuity     hectare-m            mm
  **************************     ---------       -------
  Total Precipitation ......         3.461        57.125
  Evaporation Loss .........         0.000         0.000
  Infiltration Loss ........         0.241         3.979
  Surface Runoff ...........         3.155        52.082
  Final Storage ............         0.065         1.073
  Continuity Error (%) .....        -0.015
  
  
  **************************        Volume        Volume
  Flow Routing Continuity        hectare-m      10^6 ltr
  **************************     ---------     ---------
  Dry Weather Inflow .......         0.472         4.722
  Wet Weather Inflow .......         3.155        31.550
  Groundwater Inflow .......         0.000         0.000
  RDII Inflow ..............         0.000         0.000
  External Inflow ..........         0.078         0.784
  External Outflow .........         2.922        29.215
  Flooding Loss ............         1.209        12.089
  Evaporation Loss .........         0.000         0.000
  Exfiltration Loss ........         0.000         0.000
  Initial Stored Volume ....         0.303         3.031
  Final Stored Volume ......         0.169         1.688
  Continuity Error (%) .....        -7.249
  
  
  *************************
  Highest Continuity Errors
  *************************
  Node JK-storage (-42.04%)
  Node CC-storage (-8.68%)
  Node YS02001884 (5.40%)
  Node YS02001583 (-5.14%)
  Node YS02001774 (1.66%)
  
  
  ***************************
  Time-Step Critical Elements
  ***************************
  Link WS02006252WS02006251 (43.02%)
  Link WS02006280WS02006229 (23.14%)
  Link YS02001793JiankangQianchi (15.11%)
  Link WS02006238WS02006235 (8.31%)
  Link YS02006556YS02006558 (1.21%)
  
  
  ********************************
  Highest Flow Instability Indexes
  ********************************
  Link WS02006113WS02006111 (30)
  Link WS02004404WS02004405 (23)
  Link WS02006238WS02006235 (23)
  Link WS02006252WS02006251 (19)
  Link WS02004403WS02004404 (19)
  
  
  *************************
  Routing Time Step Summary
  *************************
  Minimum Time Step           :     0.25 sec
  Average Time Step           :     1.55 sec
  Maximum Time Step           :     4.37 sec
  Percent in Steady State     :    -0.00
  Average Iterations per Step :     3.27
  Percent Not Converging      :    10.14
  
  
  ***************************
  Subcatchment Runoff Summary
  ***************************
  
  ------------------------------------------------------------------------------------------------------------------------------
                            Total      Total      Total      Total     Imperv       Perv      Total       Total     Peak  Runoff
                           Precip      Runon       Evap      Infil     Runoff     Runoff     Runoff      Runoff   Runoff   Coeff
  Subcatchment                 mm         mm         mm         mm         mm         mm         mm    10^6 ltr      LPS
  ------------------------------------------------------------------------------------------------------------------------------
  sub0                      57.13       0.00       0.00       1.01      51.86       2.99      54.85        0.04    25.03   0.960
  sub1                      57.13       0.00       0.00       1.72      49.53       4.57      54.10        0.36   184.90   0.947
  sub10                     57.13       0.00       0.00       1.21      51.22       3.36      54.57        0.60   312.92   0.955
  sub11                     57.13       0.00       0.00       1.20      51.25       3.38      54.63        0.63   340.70   0.956
  sub12                     57.13       0.00       0.00       1.94      48.50       5.48      53.99        0.47   264.67   0.945
  sub14                     57.13       0.00       0.00       1.36      50.68       3.78      54.46        0.52   274.56   0.953
  sub15                     57.13       0.00       0.00       5.31      38.98      11.83      50.81        0.87   433.45   0.889
  sub16                     57.13       0.00       0.00       5.50      37.35      13.35      50.70        0.53   284.15   0.888
  sub17                     57.13       0.00       0.00       5.36      37.90      12.92      50.82        0.44   231.59   0.890
  sub2                      57.13       0.00       0.00       7.53      35.02      13.61      48.63        0.45   193.63   0.851
  sub22                     57.13       0.00       0.00       8.02      31.76      16.54      48.30        3.05  1444.65   0.845
  sub23                     57.13       0.00       0.00       6.56      35.10      14.58      49.69        2.37  1188.53   0.870
  sub3                      57.13       0.00       0.00       8.10      34.95      12.99      47.94        1.08   419.19   0.839
  sub4                      57.13       0.00       0.00       1.91      49.22       4.38      53.60        1.12   464.98   0.938
  sub5                      57.13       0.00       0.00       1.06      51.76       2.94      54.70        0.62   317.98   0.958
  sub60                     57.13       0.00       0.00       1.83      49.03       5.03      54.06        0.71   385.43   0.946
  sub61                     57.13       0.00       0.00       2.65      46.25       7.06      53.32        0.98   534.63   0.933
  sub62                     57.13       0.00       0.00       1.22      51.21       3.35      54.56        1.49   770.16   0.955
  sub63                     57.13       0.00       0.00       4.88      39.56      11.69      51.25        1.16   610.91   0.897
  sub64                     57.13       0.00       0.00       2.47      47.28       6.10      53.38        1.28   636.48   0.934
  sub65                     57.13       0.00       0.00       2.14      48.35       5.29      53.65        1.48   714.99   0.939
  sub66                     57.13       0.00       0.00       5.99      39.36      10.58      49.94        2.33   942.96   0.874
  sub67                     57.13       0.00       0.00       1.17      51.29       3.40      54.68        1.02   563.83   0.957
  sub68                     57.13       0.00       0.00       2.19      47.90       5.80      53.70        1.48   783.24   0.940
  sub69                     57.13       0.00       0.00       1.96      48.35       6.61      54.97        2.03   953.03   0.962
  sub7                      57.13       0.00       0.00       1.34      50.71       3.80      54.51        0.18    99.94   0.954
  sub70                     57.13       0.00       0.00       6.42      37.40      13.00      50.40        1.46   531.26   0.882
  sub71                     57.13       0.00       0.00       1.25      51.13       3.32      54.45        1.42   691.42   0.953
  sub72                     57.13       0.00       0.00       1.11      51.57       2.89      54.46        0.75   338.10   0.953
  sub8                      57.13       0.00       0.00       1.36      50.69       3.78      54.47        0.35   185.85   0.954
  sub9                      57.13       0.00       0.00       1.36      50.68       3.78      54.46        0.26   139.26   0.953
  
  
  ******************
  Node Depth Summary
  ******************
  
  ---------------------------------------------------------------------------------
                                 Average  Maximum  Maximum  Time of Max    Reported
                                   Depth    Depth      HGL   Occurrence   Max Depth
  Node                 Type       Meters   Meters   Meters  days hr:min      Meters
  ---------------------------------------------------------------------------------
  HS02004478           JUNCTION     0.27     1.56    10.79     0  01:59        1.55
  HS02004479           JUNCTION     0.35     1.69    10.90     0  01:59        1.66
  HS02004480           JUNCTION     0.32     1.67    10.91     0  01:59        1.62
  HS02004770           JUNCTION     0.31     1.42    11.25     0  01:56        1.42
  HS02004777           JUNCTION     0.33     1.48    11.28     0  01:56        1.44
  HS02004785           JUNCTION     0.23     1.49    11.39     0  01:56        1.33
  HS02004788           JUNCTION     0.20     1.42    11.32     0  01:56        1.32
  HS02004792           JUNCTION     0.27     1.60    11.12     0  01:56        1.60
  HS02004799           JUNCTION     0.38     1.76    10.97     0  01:56        1.76
  HS02004802           JUNCTION     0.35     1.78    10.91     0  01:59        1.71
  HS02004807           JUNCTION     0.32     1.92    11.09     0  01:59        1.78
  HS02004817           JUNCTION     0.60     2.44    11.29     0  01:59        2.15
  HS02004824           JUNCTION     0.21     2.01    11.41     0  01:59        1.71
  HS02004830           JUNCTION     0.20     2.03    11.50     0  01:59        1.84
  HS02004837           JUNCTION     0.17     1.97    11.55     0  01:59        1.72
  HS02004842           JUNCTION     0.44     2.22    11.49     0  01:59        2.13
  HS02004848           JUNCTION     0.15     2.07    11.67     0  01:58        2.07
  HS02004852           JUNCTION     0.15     2.09    11.60     0  01:58        2.09
  HS02004856           JUNCTION     0.20     2.07    11.50     0  01:58        2.06
  HS02004862           JUNCTION     0.17     2.00    11.38     0  01:58        1.96
  HS02004870           JUNCTION     0.16     2.10    11.39     0  01:58        1.85
  HS02004876           JUNCTION     0.21     2.26    11.29     0  01:58        1.86
  HS02004881           JUNCTION     0.15     1.89    10.92     0  01:58        1.58
  HS02004901           JUNCTION     0.31     1.42    11.24     0  01:56        1.42
  WS02001211           JUNCTION     0.62     0.81     5.64     0  02:07        0.81
  WS02001212           JUNCTION     0.37     0.57     5.63     0  02:07        0.57
  WS02001213           JUNCTION     0.58     0.86     5.62     0  02:07        0.86
  WS02003059           JUNCTION     0.64     0.93     5.62     0  02:06        0.93
  WS02003060           JUNCTION     0.38     0.68     5.61     0  02:06        0.68
  WS02003066           JUNCTION     0.23     0.45     6.00     0  02:05        0.45
  WS02003067           JUNCTION     0.52     0.88     6.20     0  02:05        0.88
  WS02003069           JUNCTION     0.42     0.77     5.36     0  02:06        0.77
  WS02003072           JUNCTION     0.48     0.81     5.18     0  02:07        0.81
  WS02003073           JUNCTION     0.29     0.51     4.58     0  02:07        0.51
  WS02004138           JUNCTION     0.13     0.14     7.39     0  00:32        0.14
  WS02004139           JUNCTION     0.55     0.74     5.65     0  02:08        0.74
  WS02004401           JUNCTION     0.79     1.80     7.80     0  02:04        1.79
  WS02004402           JUNCTION     0.80     1.75     7.71     0  02:04        1.74
  WS02004403           JUNCTION     0.80     1.67     7.60     0  02:04        1.67
  WS02004404           JUNCTION     0.86     1.69     7.54     0  02:05        1.68
  WS02004405           JUNCTION     0.85     1.64     7.49     0  02:05        1.63
  WS02004406           JUNCTION     0.83     1.53     7.36     0  02:05        1.52
  WS02004407           JUNCTION     0.29     0.89     7.20     0  02:05        0.89
  WS02004409           JUNCTION     0.56     1.36     7.13     0  02:05        1.35
  WS02004410           JUNCTION     0.55     1.28     7.00     0  02:05        1.27
  WS02004411           JUNCTION     0.55     1.18     6.86     0  02:04        1.18
  WS02004412           JUNCTION     0.54     1.09     6.73     0  02:05        1.09
  WS02004413           JUNCTION     0.66     1.14     6.61     0  02:05        1.14
  WS02006109           JUNCTION     1.06     2.64     9.26     0  01:56        2.64
  WS02006110           JUNCTION     0.98     2.37     8.95     0  02:04        2.36
  WS02006111           JUNCTION     0.49     1.68     8.39     0  02:04        1.67
  WS02006112           JUNCTION     1.01     2.30     8.18     0  02:04        2.29
  WS02006113           JUNCTION     0.56     1.78     8.67     0  02:04        1.78
  WS02006115           JUNCTION     0.73     1.89     8.03     0  02:04        1.88
  WS02006116           JUNCTION     0.79     1.89     7.93     0  02:04        1.88
  WS02006228           JUNCTION     1.13     3.03     9.68     0  01:56        3.01
  WS02006229           JUNCTION     1.14     3.23     9.92     0  01:59        3.19
  WS02006230           JUNCTION     1.06     2.65     9.39     0  01:53        2.65
  WS02006231           JUNCTION     0.79     2.19     9.31     0  02:00        2.18
  WS02006232           JUNCTION     0.88     2.18     9.22     0  01:53        2.18
  WS02006234           JUNCTION     0.76     1.96     9.12     0  01:50        1.96
  WS02006235           JUNCTION     0.77     1.99     9.15     0  02:10        1.93
  WS02006238           JUNCTION     0.79     2.01     9.15     0  02:10        1.93
  WS02006239           JUNCTION     0.73     1.86     9.06     0  02:10        1.78
  WS02006240           JUNCTION     0.66     1.67     8.97     0  02:10        1.62
  WS02006242           JUNCTION     0.69     1.55     8.82     0  01:31        1.55
  WS02006243           JUNCTION     0.58     1.42     8.84     0  01:31        1.36
  WS02006245           JUNCTION     0.56     1.36     8.85     0  01:31        1.26
  WS02006247           JUNCTION     0.57     1.33     8.83     0  01:31        1.22
  WS02006248           JUNCTION     0.51     1.10     8.69     0  01:31        1.10
  WS02006249           JUNCTION     0.53     1.09     8.69     0  01:31        1.09
  WS02006251           JUNCTION     0.64     2.20     9.87     0  01:58        2.13
  WS02006252           JUNCTION     0.45     1.50     9.74     0  00:30        1.50
  WS02006253           JUNCTION     0.73     3.04    10.68     0  01:58        2.82
  WS02006256           JUNCTION     1.10     2.35     9.28     0  00:00        2.35
  WS02006280           JUNCTION     0.36     1.74    10.01     0  01:59        1.72
  WS02006284           JUNCTION     0.58     1.95    10.34     0  01:59        1.91
  WS02006287           JUNCTION     0.34     1.72    10.68     0  01:59        1.70
  WSF200               JUNCTION     0.23     0.52     5.75     0  02:05        0.52
  YS02001580           JUNCTION     0.11     1.05     9.59     0  01:55        0.77
  YS02001583           JUNCTION     0.14     1.14     9.64     0  01:55        0.82
  YS02001586           JUNCTION     0.23     1.13     9.30     0  01:55        1.13
  YS02001590           JUNCTION     0.33     1.40     9.26     0  01:55        1.36
  YS02001593           JUNCTION     0.27     1.33     9.19     0  01:55        1.28
  YS02001596           JUNCTION     0.36     1.69     9.11     0  01:55        1.65
  YS02001600           JUNCTION     0.44     1.87     9.00     0  01:55        1.86
  YS02001601           JUNCTION     0.61     2.06     8.90     0  01:55        2.06
  YS02001602           JUNCTION     0.53     1.87     8.77     0  01:55        1.87
  YS02001605           JUNCTION     0.48     1.78     8.68     0  01:55        1.77
  YS02001607           JUNCTION     0.45     1.65     8.49     0  01:59        1.64
  YS02001610           JUNCTION     0.48     1.68     8.48     0  01:55        1.68
  YS02001613           JUNCTION     0.45     1.67     8.51     0  01:55        1.65
  YS02001616           JUNCTION     0.39     1.60     8.52     0  01:55        1.58
  YS02001619           JUNCTION     0.37     1.57     8.50     0  02:03        1.57
  YS02001622           JUNCTION     0.36     1.56     8.46     0  02:04        1.55
  YS02001625           JUNCTION     0.56     1.78     8.38     0  01:58        1.78
  YS02001629           JUNCTION     0.47     1.85     8.40     0  01:59        1.85
  YS02001633           JUNCTION     0.53     2.04     8.50     0  02:00        1.99
  YS02001641           JUNCTION     0.49     1.95     8.38     0  02:02        1.93
  YS02001644           JUNCTION     0.48     1.92     8.35     0  02:01        1.92
  YS02001647           JUNCTION     0.29     1.79     8.40     0  02:01        1.70
  YS02001649           JUNCTION     0.32     1.99     8.38     0  02:01        1.86
  YS02001652           JUNCTION     0.22     1.92     8.52     0  02:01        1.68
  YS02001655           JUNCTION     0.15     1.99     8.84     0  02:00        1.46
  YS02001658           JUNCTION     0.11     1.97     9.11     0  02:01        1.19
  YS02001661           JUNCTION     0.14     0.96     8.36     0  02:02        0.95
  YS02001664           JUNCTION     0.06     0.39     8.32     0  02:02        0.30
  YS02001745           JUNCTION     0.06     0.67     8.19     0  02:02        0.64
  YS02001748           JUNCTION     0.10     1.61     8.69     0  02:02        1.07
  YS02001751           JUNCTION     0.12     1.62     8.50     0  02:02        1.26
  YS02001754           JUNCTION     0.17     1.74     8.34     0  02:02        1.53
  YS02001757           JUNCTION     0.33     1.94     8.21     0  02:02        1.87
  YS02001759           JUNCTION     0.27     1.93     8.29     0  02:02        1.85
  YS02001762           JUNCTION     0.26     1.91     8.31     0  02:02        1.85
  YS02001765           JUNCTION     0.24     1.89     8.34     0  02:02        1.81
  YS02001767           JUNCTION     0.24     1.87     8.36     0  02:02        1.81
  YS02001770           JUNCTION     0.26     1.92     8.41     0  02:02        1.87
  YS02001774           JUNCTION     0.31     1.98     8.40     0  02:02        1.93
  YS02001779           JUNCTION     0.15     1.68     8.37     0  01:59        1.67
  YS02001783           JUNCTION     0.27     1.23     7.37     0  01:59        1.22
  YS02001784           JUNCTION     0.28     1.12     7.19     0  01:59        1.11
  YS02001786           JUNCTION     0.23     0.88     6.91     0  01:59        0.87
  YS02001788           JUNCTION     0.17     0.62     6.60     0  02:02        0.62
  YS02001790           JUNCTION     0.20     0.72     6.37     0  02:02        0.71
  YS02001791           JUNCTION     0.12     0.44     5.91     0  02:04        0.44
  YS02001793           JUNCTION     0.10     0.95     5.79     0  02:48        0.93
  YS02001882           JUNCTION     0.33     1.65     8.37     0  01:59        1.62
  YS02001884           JUNCTION     0.41     1.74     8.36     0  01:59        1.72
  YS02001887           JUNCTION     0.48     1.81     8.35     0  01:59        1.80
  YS02001890           JUNCTION     0.51     1.81     8.32     0  01:59        1.81
  YS02001895           JUNCTION     0.31     1.57     8.32     0  01:59        1.56
  YS02001898           JUNCTION     0.31     1.57     8.31     0  01:59        1.55
  YS02001901           JUNCTION     0.40     1.68     8.29     0  02:02        1.67
  YS02001904           JUNCTION     0.39     1.64     8.27     0  01:59        1.63
  YS02001907           JUNCTION     0.66     1.96     8.25     0  01:59        1.96
  YS02001910           JUNCTION     0.49     1.98     8.48     0  01:59        1.86
  YS02001915           JUNCTION     0.34     1.93     8.65     0  01:59        1.75
  YS02001918           JUNCTION     0.20     1.81     8.88     0  01:59        1.52
  YS02001920           JUNCTION     0.28     2.11     9.11     0  01:59        1.63
  YS02001923           JUNCTION     0.15     2.03     9.29     0  01:59        1.43
  YS02001926           JUNCTION     0.18     1.90     9.35     0  01:59        1.27
  YS02001929           JUNCTION     0.10     1.78     9.47     0  01:59        1.05
  YS02006553           JUNCTION     0.67     1.97     8.26     0  02:02        1.97
  YS02006556           JUNCTION     0.64     1.94     8.25     0  02:04        1.93
  YS02006558           JUNCTION     0.68     1.98     8.25     0  02:02        1.97
  YS02006561           JUNCTION     0.17     0.88     7.54     0  01:59        0.88
  YS02163301           JUNCTION     0.49     1.93     8.45     0  02:00        1.90
  YS02163601           JUNCTION     0.56     2.07     8.47     0  02:00        2.00
  YS02164001           JUNCTION     0.49     1.98     8.43     0  02:00        1.93
  YSB1154              JUNCTION     0.46     1.97    11.03     0  01:56        1.86
  YSB1171              JUNCTION     0.59     1.95    10.85     0  01:56        1.95
  YSB1174              JUNCTION     0.42     1.82    10.93     0  01:56        1.77
  YSB6556              JUNCTION     0.37     1.80    10.97     0  01:56        1.72
  CC-1                 OUTFALL      0.00     0.00     0.00     0  00:00        0.00
  CC-2                 OUTFALL      0.00     0.00     0.00     0  00:00        0.00
  JK-1                 OUTFALL      0.00     0.00     0.00     0  00:00        0.00
  JK-2                 OUTFALL      0.00     0.00     0.00     0  00:00        0.00
  WSC                  OUTFALL      0.29     0.51     1.18     0  02:08        0.51
  CC-storage           STORAGE      0.39     1.10     6.60     0  03:00        1.10
  JK-storage           STORAGE      0.38     4.95     5.75     0  02:58        4.94
  XR-storage           STORAGE      7.49     8.66     6.66     0  06:00        8.66
  
  
  *******************
  Node Inflow Summary
  *******************
  
  -------------------------------------------------------------------------------------------------
                                  Maximum  Maximum                  Lateral       Total        Flow
                                  Lateral    Total  Time of Max      Inflow      Inflow     Balance
                                   Inflow   Inflow   Occurrence      Volume      Volume       Error
  Node                 Type           LPS      LPS  days hr:min    10^6 ltr    10^6 ltr     Percent
  -------------------------------------------------------------------------------------------------
  HS02004478           JUNCTION      0.00  2274.46     0  02:05           0        8.56      -0.008
  HS02004479           JUNCTION      0.00   412.95     0  01:59           0       0.862       0.091
  HS02004480           JUNCTION      0.00  2102.10     0  01:57           0        6.65       0.036
  HS02004770           JUNCTION   1188.53  1188.53     0  02:05        2.37        2.63       0.119
  HS02004777           JUNCTION      0.03   775.20     0  01:56    0.000648        1.99       0.263
  HS02004785           JUNCTION      0.15   782.60     0  01:56     0.00324        1.99       0.029
  HS02004788           JUNCTION    435.12  1040.16     0  01:56        0.91         2.9      -0.018
  HS02004792           JUNCTION   1444.93  2193.22     0  02:05        3.06        5.95       0.010
  HS02004799           JUNCTION    274.56  1743.70     0  01:57       0.518        5.82       0.046
  HS02004802           JUNCTION      0.00   954.06     0  02:05           0        1.94       0.206
  HS02004807           JUNCTION    340.70   953.26     0  02:05       0.635        1.99       0.221
  HS02004817           JUNCTION      0.60   614.13     0  02:05       0.013        1.41       1.167
  HS02004824           JUNCTION    465.03   641.95     0  01:57        1.12        1.67       0.032
  HS02004830           JUNCTION      0.15   640.51     0  01:57     0.00324       0.832       0.160
  HS02004837           JUNCTION    319.27   845.73     0  01:57       0.739        1.23       0.074
  HS02004842           JUNCTION      0.00   846.77     0  01:57           0       0.883       1.490
  HS02004848           JUNCTION    419.19  1073.78     0  01:57        1.08        1.79      -0.004
  HS02004852           JUNCTION      0.00  1037.83     0  01:58           0        1.64       0.020
  HS02004856           JUNCTION    139.26  1085.58     0  01:58       0.262         1.9       0.052
  HS02004862           JUNCTION    193.83  1207.23     0  01:58       0.458        2.36       0.002
  HS02004870           JUNCTION    185.85  1226.56     0  01:58       0.348         2.7      -0.013
  HS02004876           JUNCTION    184.90  1295.24     0  02:05        0.36        3.06       0.023
  HS02004881           JUNCTION     99.94  1395.35     0  02:05       0.184        3.25      -0.000
  HS02004901           JUNCTION    284.15   543.06     0  02:05       0.531       0.801       0.228
  WS02001211           JUNCTION      7.35   204.21     0  03:09       0.159        4.02       0.827
  WS02001212           JUNCTION      0.00   210.96     0  03:10           0        3.98       0.393
  WS02001213           JUNCTION      0.00   216.38     0  03:10           0        3.97       0.456
  WS02003059           JUNCTION      0.00   222.26     0  03:10           0        3.96       0.817
  WS02003060           JUNCTION     16.53  1485.71     0  02:06       0.357        12.8       0.118
  WS02003066           JUNCTION      0.00  1277.97     0  02:05           0         8.5       0.021
  WS02003067           JUNCTION      0.00  1277.64     0  02:05           0         8.5       0.056
  WS02003069           JUNCTION      0.32  1485.51     0  02:06     0.00691        12.8       0.127
  WS02003072           JUNCTION      0.00  1485.13     0  02:07           0        12.7       0.170
  WS02003073           JUNCTION      1.82  1486.80     0  02:07      0.0393        12.8       0.178
  WS02004138           JUNCTION      0.00   190.00     0  00:29           0        3.88       0.072
  WS02004139           JUNCTION      0.32   190.32     0  00:32     0.00693        3.89       0.687
  WS02004401           JUNCTION      0.00  1278.59     0  02:05           0        8.62       0.129
  WS02004402           JUNCTION      0.00  1278.73     0  02:05           0        8.61       0.130
  WS02004403           JUNCTION      0.00  1278.90     0  02:05           0         8.6       0.126
  WS02004404           JUNCTION      0.16  1279.51     0  02:05      0.0035        8.59       0.111
  WS02004405           JUNCTION      0.04  1280.00     0  02:05    0.000823        8.58       0.148
  WS02004406           JUNCTION      0.00  1279.16     0  02:05           0        8.57       0.257
  WS02004407           JUNCTION      0.00  1279.01     0  02:05           0        8.54       0.023
  WS02004409           JUNCTION      0.00  1277.55     0  02:05           0        8.54       0.046
  WS02004410           JUNCTION      0.00  1277.82     0  02:05           0        8.54       0.067
  WS02004411           JUNCTION      0.00  1277.62     0  02:05           0        8.53       0.080
  WS02004412           JUNCTION      0.00  1277.58     0  02:05           0        8.53       0.105
  WS02004413           JUNCTION      0.00  1277.62     0  02:05           0        8.52       0.179
  WS02006109           JUNCTION      1.23  1273.90     0  02:05      0.0266        8.41       0.086
  WS02006110           JUNCTION      0.00  1119.72     0  02:18           0        8.22       0.110
  WS02006111           JUNCTION      0.00  1119.54     0  02:18           0        8.21       0.009
  WS02006112           JUNCTION    231.59  1278.43     0  02:05       0.436        8.65       0.212
  WS02006113           JUNCTION      0.00  1119.58     0  02:18           0        8.21       0.034
  WS02006115           JUNCTION      0.00  1278.65     0  02:05           0        8.63       0.092
  WS02006116           JUNCTION      0.00  1278.69     0  02:05           0        8.62       0.037
  WS02006228           JUNCTION      0.00  1272.98     0  02:04           0        8.39       0.064
  WS02006229           JUNCTION      0.00  2274.62     0  02:04           0        10.6       0.074
  WS02006230           JUNCTION     10.28  1011.38     0  02:05       0.222        4.27       0.140
  WS02006231           JUNCTION      0.00   453.32     0  01:59           0        3.23      -0.077
  WS02006232           JUNCTION      0.00   453.38     0  01:59           0        3.24       0.172
  WS02006234           JUNCTION      0.00   453.17     0  01:59           0        3.24      -0.082
  WS02006235           JUNCTION      0.00   438.12     0  03:30           0        3.29       0.094
  WS02006238           JUNCTION      0.00   415.16     0  02:10           0        2.95      -0.296
  WS02006239           JUNCTION      0.00   414.84     0  02:10           0        2.93      -0.369
  WS02006240           JUNCTION      0.00   414.66     0  02:10           0        2.92      -0.027
  WS02006242           JUNCTION      0.00   414.73     0  02:10           0        2.91       0.060
  WS02006243           JUNCTION      0.00   426.93     0  01:30           0        2.51      -0.492
  WS02006245           JUNCTION      0.00   437.03     0  01:30           0        2.52       0.558
  WS02006247           JUNCTION      0.00   444.33     0  01:30           0        2.52      -0.003
  WS02006248           JUNCTION      0.00   458.21     0  01:31           0         2.8      -0.072
  WS02006249           JUNCTION      0.00  1335.89     0  01:59           0        5.36       0.197
  WS02006251           JUNCTION      0.08  1420.63     0  02:05     0.00166        5.42      -0.039
  WS02006252           JUNCTION      0.00   423.67     0  01:59           0        2.23      -0.081
  WS02006253           JUNCTION     25.03  1420.50     0  02:05      0.0444        3.34       0.044
  WS02006256           JUNCTION      0.00   300.00     0  00:00           0        1.38      -0.099
  WS02006280           JUNCTION      0.00  2273.88     0  02:05           0        8.54      -0.006
  WS02006284           JUNCTION      0.10  2273.49     0  02:05     0.00207        8.55       0.011
  WS02006287           JUNCTION      0.00  2273.68     0  02:04           0        8.54       0.010
  WSF200               JUNCTION      0.00  1278.08     0  02:05           0         8.5       0.012
  YS02001580           JUNCTION      0.00    86.06     0  01:55           0     0.00399      -0.165
  YS02001583           JUNCTION      0.00   142.50     0  01:55           0       0.015      -4.891
  YS02001586           JUNCTION    531.26   531.26     0  02:05        1.46        1.47       0.085
  YS02001590           JUNCTION      0.00   317.78     0  02:05           0        1.29      -0.027
  YS02001593           JUNCTION      0.00   317.79     0  02:05           0        1.29      -0.001
  YS02001596           JUNCTION      0.00   317.78     0  02:00           0        1.29      -0.005
  YS02001600           JUNCTION      0.00   317.78     0  02:11           0        1.29       0.011
  YS02001601           JUNCTION    953.03  1270.52     0  02:05        2.03        3.33       0.040
  YS02001602           JUNCTION      0.00   510.74     0  02:30           0        2.34       0.032
  YS02001605           JUNCTION      0.00   511.08     0  02:30           0        2.26       0.042
  YS02001607           JUNCTION      0.00   511.34     0  02:30           0        2.26       0.113
  YS02001610           JUNCTION      0.00   511.61     0  02:31           0        2.28       0.124
  YS02001613           JUNCTION      0.00   512.38     0  02:30           0        1.97       0.110
  YS02001616           JUNCTION      0.00   512.22     0  02:30           0        1.97       0.040
  YS02001619           JUNCTION    942.96   952.13     0  02:20        2.33        4.28       0.008
  YS02001622           JUNCTION      0.00   952.11     0  02:20           0        4.25       0.014
  YS02001625           JUNCTION      0.00  1058.16     0  02:05           0        4.28       0.234
  YS02001629           JUNCTION      0.00   952.22     0  02:20           0        3.77       0.030
  YS02001633           JUNCTION    715.19  1370.13     0  01:58        1.48        5.21       0.077
  YS02001641           JUNCTION      0.00  1368.69     0  01:58           0        5.18       0.062
  YS02001644           JUNCTION    636.52  1772.84     0  01:58        1.28        6.45       0.060
  YS02001647           JUNCTION      0.00  1773.30     0  01:58           0        6.41       0.008
  YS02001649           JUNCTION      0.00  2047.85     0  01:58           0        7.57       0.011
  YS02001652           JUNCTION      0.00   626.56     0  02:05           0        1.17      -0.081
  YS02001655           JUNCTION      0.15   626.71     0  02:05     0.00332        1.17       0.031
  YS02001658           JUNCTION      0.00   638.85     0  02:10           0        1.16      -0.003
  YS02001661           JUNCTION      0.00   683.11     0  02:02           0        1.16       0.029
  YS02001664           JUNCTION    610.91   610.91     0  02:05        1.16        1.16      -0.002
  YS02001745           JUNCTION    385.43   385.43     0  02:05        0.71        0.71       0.099
  YS02001748           JUNCTION      0.04   520.35     0  02:02    0.000972       0.711      -0.154
  YS02001751           JUNCTION      0.01   417.33     0  02:05    0.000238       0.714       0.066
  YS02001754           JUNCTION      0.26   418.10     0  02:05     0.00562       0.722      -0.082
  YS02001757           JUNCTION      0.00  3283.34     0  02:05           0        10.8       0.029
  YS02001759           JUNCTION    534.67  1304.16     0  02:05       0.979        2.49       0.000
  YS02001762           JUNCTION      0.00   771.50     0  02:05           0        1.51       0.014
  YS02001765           JUNCTION      0.00   770.65     0  02:05           0        1.51       0.014
  YS02001767           JUNCTION      0.54   770.47     0  02:05      0.0116        1.51       0.000
  YS02001770           JUNCTION    770.31   770.31     0  02:05         1.5        1.54       0.002
  YS02001774           JUNCTION      0.00   229.14     0  01:59           0       0.069       1.689
  YS02001779           JUNCTION      0.01   228.51     0  01:59    0.000108      0.0237      -1.138
  YS02001783           JUNCTION      0.00  1155.55     0  02:05           0           4       0.008
  YS02001784           JUNCTION      1.06  1156.51     0  02:05      0.0229        4.02       0.014
  YS02001786           JUNCTION      0.06  1156.37     0  02:05     0.00122        4.02       0.018
  YS02001788           JUNCTION      0.07  1156.32     0  02:04     0.00153        4.02       0.009
  YS02001790           JUNCTION      0.15  1165.25     0  02:01     0.00335        4.02       0.009
  YS02001791           JUNCTION      0.00  1284.21     0  02:02           0        4.02      -0.003
  YS02001793           JUNCTION      0.00  1250.55     0  02:04           0        4.04      -0.027
  YS02001882           JUNCTION      0.00    52.62     0  01:57           0      0.0127       5.731
  YS02001884           JUNCTION      0.00    91.62     0  01:56           0      0.0482       5.708
  YS02001887           JUNCTION    564.28   564.29     0  02:04        1.03        1.06       0.431
  YS02001890           JUNCTION      0.00   564.74     0  02:05           0        1.02       0.514
  YS02001895           JUNCTION      0.00   515.84     0  02:05           0        1.01       0.175
  YS02001898           JUNCTION      0.00   515.85     0  02:05           0           1       0.027
  YS02001901           JUNCTION      0.00   515.86     0  02:05           0        1.01       0.327
  YS02001904           JUNCTION      0.00   515.98     0  02:05           0        1.01       0.287
  YS02001907           JUNCTION      0.00  1558.07     0  02:04           0        3.24       0.559
  YS02001910           JUNCTION      0.00  1043.77     0  02:04           0        2.23       0.328
  YS02001915           JUNCTION    691.44  1043.71     0  02:04        1.42        2.27       0.080
  YS02001918           JUNCTION      0.00   434.59     0  02:00           0       0.872       0.025
  YS02001920           JUNCTION      2.87   434.23     0  02:00       0.062       0.856       0.137
  YS02001923           JUNCTION      0.04   419.94     0  01:59    0.000814       0.779      -0.032
  YS02001926           JUNCTION      0.05   493.14     0  01:59     0.00113       0.759       0.081
  YS02001929           JUNCTION    338.10   338.10     0  02:05       0.749       0.749      -0.057
  YS02006553           JUNCTION      0.00   791.38     0  02:18           0        2.55       0.470
  YS02006556           JUNCTION      0.00   791.78     0  02:18           0        2.56       0.324
  YS02006558           JUNCTION    784.12  1155.88     0  02:04         1.5        4.03       0.093
  YS02006561           JUNCTION      0.00  1155.46     0  02:05           0           4      -0.003
  YS02163301           JUNCTION      0.00   953.24     0  02:21           0        3.77       0.049
  YS02163601           JUNCTION      0.11  1370.17     0  01:58     0.00238        5.17       0.105
  YS02164001           JUNCTION      0.00  1369.91     0  01:58           0        5.17       0.053
  YSB1154              JUNCTION    317.98   317.98     0  02:05        0.62        0.62       0.234
  YSB1171              JUNCTION      0.00   585.03     0  02:05           0         1.1       0.579
  YSB1174              JUNCTION    264.67   264.67     0  02:05       0.472       0.472       0.278
  YSB6556              JUNCTION      0.00   318.06     0  02:05           0       0.621       0.186
  CC-1                 OUTFALL       0.00   683.00     0  00:10           0         7.6       0.000
  CC-2                 OUTFALL       0.00   683.00     0  00:30           0        4.31       0.000
  JK-1                 OUTFALL       0.00  1000.00     0  00:00           0        3.27       0.000
  JK-2                 OUTFALL       0.00  1000.00     0  02:10           0        1.29       0.000
  WSC                  OUTFALL       0.00  1486.60     0  02:08           0        12.7       0.000
  CC-storage           STORAGE       0.00  3283.79     0  02:05           0          13      -7.987
  JK-storage           STORAGE       0.00  1288.72     0  02:04           0        4.19     -29.599
  XR-storage           STORAGE     200.00   200.00     0  00:00        4.32        4.92       0.001
  
  
  **********************
  Node Surcharge Summary
  **********************
  
  Surcharging occurs when water rises above the top of the highest conduit.
  ---------------------------------------------------------------------
                                               Max. Height   Min. Depth
                                   Hours       Above Crown    Below Rim
  Node                 Type      Surcharged         Meters       Meters
  ---------------------------------------------------------------------
  HS02004478           JUNCTION        0.44          0.639        0.301
  HS02004479           JUNCTION        0.58          0.894        0.156
  HS02004480           JUNCTION        0.63          0.959        0.141
  HS02004770           JUNCTION        0.53          0.720        0.000
  HS02004777           JUNCTION        0.53          0.780        0.000
  HS02004785           JUNCTION        0.48          0.790        0.000
  HS02004788           JUNCTION        0.47          0.720        0.000
  HS02004792           JUNCTION        0.59          0.900        0.000
  HS02004799           JUNCTION        0.73          1.060        0.000
  HS02004802           JUNCTION        0.64          1.067        0.143
  HS02004807           JUNCTION        0.62          1.220        0.000
  HS02004817           JUNCTION        1.32          1.739        0.001
  HS02004824           JUNCTION        0.46          1.310        0.000
  HS02004830           JUNCTION        0.44          1.330        0.000
  HS02004837           JUNCTION        0.38          1.268        0.072
  HS02004842           JUNCTION        0.54          1.520        0.000
  HS02004848           JUNCTION        0.33          1.370        0.000
  HS02004852           JUNCTION        0.38          1.390        0.030
  HS02004856           JUNCTION        0.33          1.300        0.000
  HS02004862           JUNCTION        0.40          1.300        0.000
  HS02004870           JUNCTION        0.42          1.400        0.000
  HS02004876           JUNCTION        0.48          1.560        0.000
  HS02004881           JUNCTION        0.46          1.188        0.262
  HS02004901           JUNCTION        0.53          0.720        0.000
  WS02004401           JUNCTION        1.59          0.798        0.862
  WS02004402           JUNCTION        1.61          0.746        0.994
  WS02004403           JUNCTION        1.61          0.672        1.358
  WS02004404           JUNCTION        1.68          0.689        2.091
  WS02004405           JUNCTION        1.67          0.641        2.159
  WS02004406           JUNCTION        1.65          0.531        1.919
  WS02004409           JUNCTION        1.10          0.358        2.002
  WS02004410           JUNCTION        1.01          0.275        2.265
  WS02004411           JUNCTION        0.89          0.184        2.346
  WS02004412           JUNCTION        0.77          0.092        2.218
  WS02004413           JUNCTION        1.43          0.137        2.063
  WS02006109           JUNCTION        2.06          1.820        0.000
  WS02006110           JUNCTION        1.83          1.459        0.391
  WS02006111           JUNCTION        1.39          0.869        1.001
  WS02006112           JUNCTION        1.91          1.301        0.379
  WS02006113           JUNCTION        1.41          0.981        0.949
  WS02006115           JUNCTION        1.54          0.879        1.371
  WS02006116           JUNCTION        1.55          0.828        1.462
  WS02006228           JUNCTION        2.05          2.200        0.000
  WS02006229           JUNCTION        0.94          1.047        0.023
  WS02006230           JUNCTION        1.72          1.570        0.000
  WS02006231           JUNCTION        1.75          1.479        0.051
  WS02006232           JUNCTION        1.92          1.480        0.000
  WS02006234           JUNCTION        1.77          1.240        0.000
  WS02006235           JUNCTION        1.80          1.279        0.011
  WS02006238           JUNCTION        1.81          1.286        0.144
  WS02006239           JUNCTION        1.76          1.116        0.174
  WS02006240           JUNCTION        1.73          0.962        0.428
  WS02006242           JUNCTION        1.82          0.820        0.000
  WS02006243           JUNCTION        1.69          0.711        0.059
  WS02006245           JUNCTION        1.67          0.651        0.199
  WS02006247           JUNCTION        1.67          0.616        0.144
  WS02006248           JUNCTION        1.63          0.380        0.000
  WS02006249           JUNCTION        1.64          0.390        0.000
  WS02006251           JUNCTION        1.43          1.175        0.005
  WS02006252           JUNCTION        1.95          1.100        0.000
  WS02006253           JUNCTION        1.51          1.995        0.485
  WS02006256           JUNCTION        5.98          2.050        0.000
  WS02006280           JUNCTION        0.76          0.693        0.087
  WS02006284           JUNCTION        0.66          0.665        0.135
  WS02006287           JUNCTION        0.54          0.725        0.165
  YS02001580           JUNCTION        0.56          0.450        0.000
  YS02001583           JUNCTION        0.57          0.500        0.000
  YS02001586           JUNCTION        0.68          0.510        0.000
  YS02001590           JUNCTION        0.77          0.750        0.000
  YS02001593           JUNCTION        0.77          0.710        0.130
  YS02001596           JUNCTION        0.89          0.957        0.113
  YS02001600           JUNCTION        1.09          1.190        0.000
  YS02001601           JUNCTION        1.48          1.440        0.000
  YS02001602           JUNCTION        1.38          1.270        0.000
  YS02001605           JUNCTION        1.32          1.180        0.000
  YS02001607           JUNCTION        0.69          0.646        0.034
  YS02001610           JUNCTION        0.73          0.680        0.000
  YS02001613           JUNCTION        0.68          0.674        0.026
  YS02001616           JUNCTION        0.63          0.604        0.006
  YS02001619           JUNCTION        0.62          0.567        0.043
  YS02001622           JUNCTION        0.60          0.555        0.065
  YS02001625           JUNCTION        0.83          0.780        0.000
  YS02001629           JUNCTION        0.49          0.470        0.000
  YS02001633           JUNCTION        0.84          1.023        0.037
  YS02001641           JUNCTION        0.70          0.945        0.155
  YS02001644           JUNCTION        0.63          0.920        0.000
  YS02001647           JUNCTION        0.35          0.791        0.109
  YS02001649           JUNCTION        0.38          0.993        0.057
  YS02001652           JUNCTION        0.26          0.891        0.239
  YS02001655           JUNCTION        0.19          0.987        0.213
  YS02001658           JUNCTION        0.09          0.972        0.328
  YS02001748           JUNCTION        0.01          0.529        0.661
  YS02001751           JUNCTION        0.11          0.623        0.577
  YS02001754           JUNCTION        0.18          0.686        0.464
  YS02001757           JUNCTION        0.36          0.945        0.265
  YS02001759           JUNCTION        0.32          0.927        0.283
  YS02001762           JUNCTION        0.30          0.912        0.238
  YS02001765           JUNCTION        0.28          0.885        0.215
  YS02001767           JUNCTION        0.27          0.871        0.159
  YS02001770           JUNCTION        0.26          0.887        0.033
  YS02001774           JUNCTION        0.30          0.981        0.069
  YS02001779           JUNCTION        0.20          0.680        0.000
  YS02001783           JUNCTION        0.51          0.426        1.174
  YS02001784           JUNCTION        0.48          0.318        1.172
  YS02001786           JUNCTION        0.37          0.084        1.346
  YS02001882           JUNCTION        0.45          0.653        0.177
  YS02001884           JUNCTION        0.46          0.680        0.190
  YS02001887           JUNCTION        0.50          0.757        0.193
  YS02001890           JUNCTION        0.51          0.760        0.000
  YS02001895           JUNCTION        0.44          0.569        0.181
  YS02001898           JUNCTION        0.43          0.541        0.199
  YS02001901           JUNCTION        0.49          0.677        0.193
  YS02001904           JUNCTION        0.48          0.638        0.212
  YS02001907           JUNCTION        0.75          0.950        0.000
  YS02001910           JUNCTION        0.54          0.976        0.124
  YS02001915           JUNCTION        0.45          0.929        0.071
  YS02001918           JUNCTION        0.36          0.810        0.000
  YS02001920           JUNCTION        0.37          1.105        0.035
  YS02001923           JUNCTION        0.01          0.816        0.004
  YS02001926           JUNCTION        0.01          0.900        0.000
  YS02001929           JUNCTION        0.01          0.780        0.000
  YS02006553           JUNCTION        0.78          0.972        0.218
  YS02006556           JUNCTION        0.65          0.896        0.454
  YS02006558           JUNCTION        0.64          0.879        0.521
  YS02006561           JUNCTION        0.32          0.084        1.066
  YS02163301           JUNCTION        0.82          0.933        0.097
  YS02163601           JUNCTION        0.87          1.068        0.012
  YS02164001           JUNCTION        0.73          0.975        0.125
  YSB1154              JUNCTION        0.88          1.270        0.130
  YSB1171              JUNCTION        0.89          1.100        0.000
  YSB1174              JUNCTION        0.77          1.119        0.131
  YSB6556              JUNCTION        0.70          1.100        0.000
  
  
  *********************
  Node Flooding Summary
  *********************
  
  Flooding refers to all water that overflows a node, whether it ponds or not.
  --------------------------------------------------------------------------
                                                             Total   Maximum
                                 Maximum   Time of Max       Flood    Ponded
                        Hours       Rate    Occurrence      Volume     Depth
  Node                 Flooded       LPS   days hr:min    10^6 ltr    Meters
  --------------------------------------------------------------------------
  HS02004770              0.32    616.43      0  02:05       0.370     0.000
  HS02004777              0.01     52.95      0  01:56       0.000     0.000
  HS02004785              0.01    177.56      0  01:56       0.001     0.000
  HS02004788              0.01    456.89      0  01:56       0.002     0.000
  HS02004792              0.32   1050.82      0  02:05       0.653     0.000
  HS02004799              0.12     94.37      0  02:05       0.018     0.000
  HS02004807              0.01     15.24      0  01:59       0.000     0.000
  HS02004824              0.01     15.39      0  01:59       0.000     0.000
  HS02004830              0.01     14.16      0  01:59       0.000     0.000
  HS02004842              0.01    178.37      0  01:59       0.001     0.000
  HS02004848              0.01    377.13      0  01:58       0.001     0.000
  HS02004856              0.01    337.07      0  01:58       0.000     0.000
  HS02004862              0.01    423.60      0  01:58       0.001     0.000
  HS02004870              0.01    386.76      0  01:58       0.001     0.000
  HS02004876              0.01     85.35      0  01:58       0.000     0.000
  HS02004901              0.40    543.02      0  02:05       0.535     0.000
  WS02006109              0.36    226.91      0  02:05       0.177     0.000
  WS02006228              0.01      3.93      0  01:56       0.000     0.000
  WS02006230              0.67    558.78      0  02:05       0.852     0.000
  WS02006232              0.16      0.63      0  02:31       0.000     0.000
  WS02006234              0.76    128.65      0  01:59       0.281     0.000
  WS02006242              0.88    137.15      0  02:01       0.392     0.000
  WS02006248              1.36    339.97      0  01:54       1.299     0.000
  WS02006249              1.53   1274.62      0  01:59       3.574     0.000
  WS02006252              0.20    422.68      0  01:59       0.146     0.000
  WS02006256              1.11    296.91      0  02:20       0.715     0.000
  YS02001580              0.01     63.08      0  01:55       0.000     0.000
  YS02001583              0.01     73.26      0  01:55       0.000     0.000
  YS02001586              0.41    213.69      0  02:05       0.162     0.000
  YS02001590              0.01      5.88      0  01:55       0.000     0.000
  YS02001600              0.01      1.78      0  01:55       0.000     0.000
  YS02001601              0.60    872.57      0  02:05       0.987     0.000
  YS02001602              0.40     61.90      0  02:15       0.080     0.000
  YS02001605              0.01      2.30      0  01:55       0.000     0.000
  YS02001610              0.34    418.34      0  02:05       0.330     0.000
  YS02001625              0.29   1057.87      0  02:05       0.537     0.000
  YS02001629              0.05     47.56      0  02:02       0.004     0.000
  YS02001644              0.07    199.89      0  02:03       0.035     0.000
  YS02001779              0.01    212.37      0  01:59       0.001     0.000
  YS02001890              0.10     49.58      0  02:05       0.008     0.000
  YS02001907              0.30   1181.76      0  02:04       0.682     0.000
  YS02001918              0.01     77.51      0  01:59       0.001     0.000
  YS02001926              0.01     58.37      0  01:59       0.000     0.000
  YS02001929              0.01    253.79      0  01:59       0.001     0.000
  YSB1171                 0.21    584.37      0  02:05       0.239     0.000
  YSB6556                 0.01     12.77      0  01:56       0.000     0.000
  
  
  **********************
  Storage Volume Summary
  **********************
  
  --------------------------------------------------------------------------------------------------
                         Average     Avg  Evap Exfil       Maximum     Max    Time of Max    Maximum
                          Volume    Pcnt  Pcnt  Pcnt        Volume    Pcnt     Occurrence    Outflow
  Storage Unit           1000 m3    Full  Loss  Loss       1000 m3    Full    days hr:min        LPS
  --------------------------------------------------------------------------------------------------
  CC-storage               1.077      17     0     0         3.065      48       0  03:00    1766.00
  JK-storage               0.019       7     0     0         0.248      85       0  02:58    2300.00
  XR-storage               0.899      62     0     0         1.039      72       0  06:00     190.00
  
  
  ***********************
  Outfall Loading Summary
  ***********************
  
  -----------------------------------------------------------
                         Flow       Avg       Max       Total
                         Freq      Flow      Flow      Volume
  Outfall Node           Pcnt       LPS       LPS    10^6 ltr
  -----------------------------------------------------------
  CC-1                  76.82    459.36    683.00       7.600
  CC-2                  44.96    505.77    683.00       4.314
  JK-1                  63.06    321.22   1000.00       3.273
  JK-2                  30.41    273.65   1000.00       1.287
  WSC                   99.96    620.42   1486.60      12.741
  -----------------------------------------------------------
  System                63.04   2180.42   4846.06      29.215
  
  
  ********************
  Link Flow Summary
  ********************
  
  -----------------------------------------------------------------------------
                                 Maximum  Time of Max   Maximum    Max/    Max/
                                  |Flow|   Occurrence   |Veloc|    Full    Full
  Link                 Type          LPS  days hr:min     m/sec    Flow   Depth
  -----------------------------------------------------------------------------
  1                    CONDUIT   1486.60     0  02:08      3.69    0.52    0.51
  HS02004478WS02006287 CONDUIT   2273.68     0  02:04      2.60    0.64    1.00
  HS02004479HS02004480 CONDUIT    412.40     0  01:58      0.59    0.40    1.00
  HS02004480HS02004478 CONDUIT   2099.35     0  01:57      3.00    8.84    1.00
  HS02004770HS02004777 CONDUIT    775.17     0  01:56      1.11    1.42    1.00
  HS02004777HS02004785 CONDUIT    782.45     0  01:56      1.16    0.96    1.00
  HS02004785HS02004788 CONDUIT    816.52     0  01:56      1.36    6.16    1.00
  HS02004788HS02004792 CONDUIT    827.60     0  02:20      1.45    0.55    1.00
  HS02004792HS02004799 CONDUIT   1574.68     0  01:57      2.25    0.96    1.00
  HS02004799HS02004480 CONDUIT   1742.03     0  01:57      2.49    2.20    1.00
  HS02004802HS02004478 CONDUIT    954.50     0  02:05      1.36    0.84    1.00
  HS02004807HS02004802 CONDUIT    954.06     0  02:05      1.36    1.82    1.00
  HS02004817HS02004807 CONDUIT    614.73     0  02:05      0.88    0.36    1.00
  HS02004817HS02004824 CONDUIT    613.53     0  02:05      0.88    0.28    1.00
  HS02004824HS02004830 CONDUIT    640.36     0  01:57      0.91    0.84    1.00
  HS02004830HS02004837 CONDUIT    654.61     0  01:57      1.03    0.65    1.00
  HS02004837HS02004842 CONDUIT    846.77     0  01:57      1.21    0.51    1.00
  HS02004842HS02004848 CONDUIT    845.78     0  01:57      1.35    0.49    1.00
  HS02004848HS02004852 CONDUIT   1037.83     0  01:58      1.62    1.17    1.00
  HS02004852HS02004856 CONDUIT    992.02     0  01:58      1.49    1.13    1.00
  HS02004856HS02004862 CONDUIT   1086.32     0  01:58      1.71    1.08    1.00
  HS02004862HS02004870 CONDUIT   1098.88     0  01:58      1.78    1.19    1.00
  HS02004870HS02004876 CONDUIT   1130.02     0  01:59      1.68    0.75    1.00
  HS02004876HS02004881 CONDUIT   1295.58     0  02:05      2.54   13.78    1.00
  HS02004881HS02006253 CONDUIT   1395.50     0  02:05      2.11    0.27    1.00
  HS02004901HS02004770 CONDUIT    265.78     0  02:15      0.38    1.00    1.00
  WS02001211WS02001212 CONDUIT    210.96     0  03:10      0.54    0.16    0.69
  WS02001212WS02001213 CONDUIT    216.38     0  03:10      1.04    0.33    0.55
  WS02001213WS02003059 CONDUIT    222.26     0  03:10      0.47    0.37    0.89
  WS02003059WS02003060 CONDUIT    230.39     0  03:11      0.67    0.15    0.81
  WS02003060WS02003069 CONDUIT   1485.19     0  02:06      2.08    0.58    0.60
  WS02003066WSF200     CONDUIT   1278.08     0  02:05      3.24    0.22    0.38
  WS02003067WS02003066 CONDUIT   1277.97     0  02:05      1.98    0.41    0.56
  WS02003069WS02003072 CONDUIT   1485.13     0  02:07      1.89    0.72    0.66
  WS02003072WS02003073 CONDUIT   1484.98     0  02:07      2.04    3.21    0.61
  WS02004138WS02004139 CONDUIT    190.00     0  00:32      2.16    0.04    0.41
  WS02004139WS02001211 CONDUIT    196.87     0  03:09      0.54    0.25    0.60
  WS02004401WS02004402 CONDUIT   1278.73     0  02:05      1.63    1.54    1.00
  WS02004402WS02004403 CONDUIT   1278.90     0  02:05      1.63    1.84    1.00
  WS02004403WS02004404 CONDUIT   1279.35     0  02:05      1.63    0.92    1.00
  WS02004404WS02004405 CONDUIT   1279.96     0  02:05      1.63   12.54    1.00
  WS02004405WS02004406 CONDUIT   1279.16     0  02:05      1.63    2.52    1.00
  WS02004406WS02004407 CONDUIT   1279.01     0  02:05      1.71    0.57    0.94
  WS02004407WS02004409 CONDUIT   1277.55     0  02:05      1.86    0.45    0.94
  WS02004409WS02004410 CONDUIT   1277.82     0  02:05      1.63    1.65    1.00
  WS02004410WS02004411 CONDUIT   1277.62     0  02:05      1.63    1.75    1.00
  WS02004411WS02004412 CONDUIT   1277.58     0  02:05      1.63    1.81    1.00
  WS02004412WS02004413 CONDUIT   1277.62     0  02:05      1.63    0.86    1.00
  WS02004413WS02003067 CONDUIT   1277.64     0  02:05      1.98    0.55    0.76
  WS02006109WS02006110 CONDUIT   1119.72     0  02:18      2.23    2.15    1.00
  WS02006110WS02006113 CONDUIT   1119.58     0  02:18      2.23    1.02    1.00
  WS02006111WS02006112 CONDUIT   1119.62     0  02:18      2.23    0.53    1.00
  WS02006112WS02006115 CONDUIT   1278.65     0  02:05      1.63    0.75    1.00
  WS02006113WS02006111 CONDUIT   1119.54     0  02:18      2.75    1.34    1.00
  WS02006115WS02006116 CONDUIT   1278.69     0  02:05      1.63    1.64    1.00
  WS02006116WS02004401 CONDUIT   1278.59     0  02:05      1.63    1.76    1.00
  WS02006228WS02006109 CONDUIT   1272.67     0  02:05      2.53    5.56    1.00
  WS02006229WS02006228 CONDUIT   1272.98     0  02:04      2.53    4.22    1.00
  WS02006230WS02006229 CONDUIT   1001.10     0  02:05      2.60   22.28    1.00
  WS02006231WS02006230 CONDUIT    453.32     0  01:59      1.36    6.88    1.00
  WS02006232WS02006231 CONDUIT    453.38     0  01:59      1.18    0.95    1.00
  WS02006234WS02006232 CONDUIT    453.17     0  01:59      1.41    0.92    1.00
  WS02006235WS02006234 CONDUIT    437.56     0  03:30      1.14    4.62    1.00
  WS02006238WS02006235 CONDUIT    415.16     0  02:10      1.62    0.93    1.00
  WS02006239WS02006238 CONDUIT    414.84     0  02:10      1.08    1.33    1.00
  WS02006240WS02006239 CONDUIT    414.66     0  02:10      1.08    1.30    1.00
  WS02006242WS02006240 CONDUIT    414.73     0  02:10      1.08    1.65    1.00
  WS02006243WS02006242 CONDUIT    413.10     0  01:30      1.13    0.88    1.00
  WS02006245WS02006243 CONDUIT    426.93     0  01:30      1.38    1.26    1.00
  WS02006247WS02006245 CONDUIT    437.03     0  01:30      1.38    3.47    1.00
  WS02006248WS02006247 CONDUIT    444.33     0  01:30      1.33    0.97    1.00
  WS02006249WS02006248 CONDUIT    458.21     0  01:31      1.43    2.51    1.00
  WS02006251WS02006249 CONDUIT   1335.89     0  01:59      3.47    3.85    1.00
  WS02006252WS02006251 CONDUIT    410.18     0  01:31      8.68    1.51    1.00
  WS02006253WS02006251 CONDUIT   1420.56     0  02:05      3.69    4.26    1.00
  WS02006256WS02006235 CONDUIT    289.10     0  00:00      4.25    3.06    1.00
  WS02006280WS02006229 CONDUIT   2274.62     0  02:04      4.05    0.49    1.00
  WS02006284WS02006280 CONDUIT   2273.88     0  02:05      2.96    0.95    1.00
  WS02006287WS02006284 CONDUIT   2273.40     0  02:05      2.89    1.05    1.00
  WSF200WS02003060     CONDUIT   1278.20     0  02:05      2.28    0.28    0.50
  YS02001580YS02001583 CONDUIT     86.06     0  01:55      0.58    0.33    1.00
  YS02001583YS02001586 CONDUIT    142.50     0  01:55      0.59    0.22    1.00
  YS02001586YS02001590 CONDUIT    317.78     0  02:05      1.26    0.56    1.00
  YS02001590YS02001593 CONDUIT    317.79     0  02:05      1.12    1.99    1.00
  YS02001593YS02001596 CONDUIT    317.78     0  02:00      1.75    0.50    1.00
  YS02001596YS02001600 CONDUIT    317.78     0  02:11      1.23    0.62    1.00
  YS02001600YS02001601 CONDUIT    317.74     0  02:05      1.12    0.55    1.00
  YS02001601YS02001602 CONDUIT    510.74     0  02:30      1.81    1.84    1.00
  YS02001602YS02001605 CONDUIT    511.08     0  02:30      1.81   10.82    1.00
  YS02001605YS02001607 CONDUIT    511.34     0  02:30      1.81    2.80    1.00
  YS02001607YS02001610 CONDUIT    511.61     0  02:31      0.65    0.49    1.00
  YS02001610YS02001613 CONDUIT    512.38     0  02:30      0.65    0.59    1.00
  YS02001613YS02001616 CONDUIT    512.22     0  02:30      0.65    0.44    1.00
  YS02001616YS02001619 CONDUIT    512.67     0  02:30      0.67    0.89    1.00
  YS02001619YS02001622 CONDUIT    952.11     0  02:20      1.21    1.40    1.00
  YS02001622YS02001625 CONDUIT    951.94     0  02:20      1.21    0.51    1.00
  YS02001625YS02001629 CONDUIT    952.22     0  02:20      1.21    0.45    1.00
  YS02001629YS02163301 CONDUIT    953.24     0  02:21      1.21    1.17    1.00
  YS02001633YS02163601 CONDUIT   1370.06     0  01:58      1.74    1.44    1.00
  YS02001641YS02001644 CONDUIT   1368.10     0  01:58      1.74    4.42    1.00
  YS02001644YS02001647 CONDUIT   1773.30     0  01:58      2.26    1.04    1.00
  YS02001647YS02001649 CONDUIT   1788.48     0  01:58      2.32    0.94    1.00
  YS02001649YS02001757 CONDUIT   2051.16     0  01:58      2.61    1.24    1.00
  YS02001652YS02001649 CONDUIT    626.86     0  02:05      0.84    0.31    1.00
  YS02001655YS02001652 CONDUIT    626.56     0  02:05      1.28    0.30    1.00
  YS02001658YS02001655 CONDUIT    626.56     0  02:05      1.84    0.27    1.00
  YS02001661YS02001658 CONDUIT    638.85     0  02:10      2.31    0.25    0.95
  YS02001664YS02001661 CONDUIT    683.11     0  02:02      2.23    0.21    0.64
  YS02001745YS02001748 CONDUIT    520.30     0  02:02      2.15    0.20    0.81
  YS02001748YS02001751 CONDUIT    417.32     0  02:05      1.69    0.21    1.00
  YS02001751YS02001754 CONDUIT    417.84     0  02:05      1.35    0.20    1.00
  YS02001754YS02001757 CONDUIT    418.19     0  02:05      0.53    0.17    1.00
  YS02001757CaochengTiaoxuchi CONDUIT   3283.79     0  02:05      7.09    1.42    0.87
  YS02001759YS02001757 CONDUIT   1304.35     0  02:05      1.66    0.93    1.00
  YS02001762YS02001759 CONDUIT    771.90     0  02:05      0.98    0.89    1.00
  YS02001765YS02001762 CONDUIT    771.50     0  02:05      0.98    0.72    1.00
  YS02001767YS02001765 CONDUIT    770.65     0  02:05      0.98    0.97    1.00
  YS02001770YS02001767 CONDUIT    769.93     0  02:05      0.98    3.05    1.00
  YS02001774YS02001770 CONDUIT    229.14     0  01:59      0.29    0.15    1.00
  YS02001779YS02001774 CONDUIT    228.51     0  01:59      0.29    0.12    1.00
  YS02001783YS02001784 CONDUIT   1155.45     0  02:05      2.30    1.59    1.00
  YS02001784YS02001785 CONDUIT   1156.32     0  02:05      2.30    2.69    1.00
  YS02001786YS02001788 CONDUIT   1156.25     0  02:04      2.46    2.23    0.89
  YS02001788YS02001790 CONDUIT   1165.09     0  02:01      2.71    0.86    0.84
  YS02001790YS02001791 CONDUIT   1284.21     0  02:02      3.43    1.40    0.70
  YS02001791YS02001793 CONDUIT   1250.55     0  02:04      6.38    0.54    0.64
  YS02001793JiankangQianchi CONDUIT   1288.72     0  02:04     24.98    0.10    0.98
  YS02001882YS02001884 CONDUIT     52.62     0  01:57      0.14    0.06    1.00
  YS02001884YS02001887 CONDUIT     91.62     0  01:56      0.12    0.12    1.00
  YS02001887YS02001890 CONDUIT    564.74     0  02:05      0.72    0.97    1.00
  YS02001890YS02001895 CONDUIT    515.84     0  02:05      0.66    0.24    1.00
  YS02001895YS02001898 CONDUIT    515.85     0  02:05      0.66    0.90    1.00
  YS02001898YS02001901 CONDUIT    515.86     0  02:05      0.66    0.33    1.00
  YS02001901YS02001904 CONDUIT    515.98     0  02:05      0.66    0.80    1.00
  YS02001904YS02001907 CONDUIT    515.70     0  02:05      0.66    0.18    1.00
  YS02001907YS02006553 CONDUIT    791.38     0  02:18      0.88    0.93    1.00
  YS02001910YS02001907 CONDUIT   1043.62     0  02:04      1.33    0.59    1.00
  YS02001915YS02001910 CONDUIT   1043.77     0  02:04      1.33    0.52    1.00
  YS02001918YS02001915 CONDUIT    434.71     0  02:00      0.55    0.24    1.00
  YS02001920YS02001918 CONDUIT    434.59     0  02:00      0.64    0.42    1.00
  YS02001923YS02001920 CONDUIT    431.36     0  02:00      0.69    0.19    1.00
  YS02001926YS02001923 CONDUIT    379.10     0  02:00      0.96    0.54    1.00
  YS02001929YS02001926 CONDUIT    376.32     0  02:00      1.12    0.18    1.00
  YS02006553YS02006556 CONDUIT    791.78     0  02:18      1.01    0.68    1.00
  YS02006556YS02006558 CONDUIT    792.58     0  02:18      1.01    0.63    1.00
  YS02006558YS02006561 CONDUIT   1155.46     0  02:05      4.09    2.55    1.00
  YS02006561YS02001783 CONDUIT   1155.55     0  02:05      2.30    0.60    1.00
  YS02163301YS02001633 CONDUIT    953.26     0  02:21      1.21    0.90    1.00
  YS02163601YS02164001 CONDUIT   1369.91     0  01:58      1.74    1.21    1.00
  YS02164001YS02001641 CONDUIT   1368.69     0  01:58      1.74    1.87    1.00
  YSB1154YSB6556       CONDUIT    318.06     0  02:05      0.83    0.57    1.00
  YSB1171HS02004479    CONDUIT    412.95     0  01:59      0.82    0.28    1.00
  YSB1174YSB1171       CONDUIT    264.81     0  02:05      0.69    0.41    1.00
  YSB6556YSB1171       CONDUIT    318.39     0  02:05      0.83    0.33    1.00
  CC-R1                PUMP       683.00     0  00:10              1.00
  CC-R2                PUMP       683.00     0  00:30              1.00
  CC-S1                PUMP       200.00     0  00:00              1.00
  CC-S2                PUMP       200.00     0  00:30              1.00
  JK-R1                PUMP      1000.00     0  00:00              1.00
  JK-R2                PUMP      1000.00     0  02:10              1.00
  JK-S                 PUMP       300.00     0  00:00              1.00
  XR-1                 PUMP        95.00     0  00:10              1.00
  XR-2                 PUMP        95.00     0  00:29              1.00
  XR-3                 PUMP         0.00     0  00:00              0.00
  XR-4                 PUMP         0.00     0  00:00              0.00
  
  
  ***************************
  Flow Classification Summary
  ***************************
  
  -------------------------------------------------------------------------------------
                      Adjusted    ---------- Fraction of Time in Flow Class ---------- 
                       /Actual         Up    Down  Sub   Sup   Up    Down  Norm  Inlet 
  Conduit               Length    Dry  Dry   Dry   Crit  Crit  Crit  Crit  Ltd   Ctrl  
  -------------------------------------------------------------------------------------
  1                       1.00   0.00  0.00  0.00  0.00  1.00  0.00  0.00  0.42  0.00
  HS02004478WS02006287    1.00   0.27  0.00  0.00  0.47  0.26  0.00  0.00  0.45  0.00
  HS02004479HS02004480    1.00   0.08  0.00  0.00  0.92  0.00  0.00  0.00  0.15  0.00
  HS02004480HS02004478    1.00   0.25  0.00  0.00  0.41  0.00  0.00  0.34  0.00  0.00
  HS02004770HS02004777    1.00   0.00  0.25  0.00  0.75  0.00  0.00  0.00  0.03  0.00
  HS02004777HS02004785    1.00   0.00  0.00  0.00  1.00  0.00  0.00  0.00  0.15  0.00
  HS02004785HS02004788    1.00   0.00  0.00  0.00  1.00  0.00  0.00  0.00  0.00  0.00
  HS02004788HS02004792    1.00   0.00  0.00  0.00  0.97  0.03  0.00  0.00  0.87  0.00
  HS02004792HS02004799    1.00   0.00  0.00  0.00  0.96  0.04  0.00  0.00  0.81  0.00
  HS02004799HS02004480    1.00   0.01  0.07  0.00  0.73  0.00  0.19  0.00  0.00  0.00
  HS02004802HS02004478    1.00   0.25  0.00  0.00  0.75  0.00  0.00  0.00  0.03  0.00
  HS02004807HS02004802    1.00   0.25  0.00  0.00  0.74  0.00  0.00  0.01  0.00  0.00
  HS02004817HS02004807    1.00   0.00  0.25  0.00  0.75  0.00  0.00  0.00  0.01  0.00
  HS02004817HS02004824    1.00   0.00  0.00  0.00  1.00  0.00  0.00  0.00  0.74  0.00
  HS02004824HS02004830    1.00   0.00  0.00  0.00  1.00  0.00  0.00  0.00  0.01  0.00
  HS02004830HS02004837    1.00   0.00  0.00  0.00  0.99  0.01  0.00  0.00  0.84  0.00
  HS02004837HS02004842    1.00   0.00  0.00  0.00  0.98  0.02  0.00  0.00  0.14  0.00
  HS02004842HS02004848    1.00   0.00  0.25  0.00  0.75  0.00  0.00  0.00  0.40  0.00
  HS02004848HS02004852    1.00   0.25  0.00  0.00  0.75  0.00  0.00  0.00  0.61  0.00
  HS02004852HS02004856    1.00   0.25  0.01  0.00  0.75  0.00  0.00  0.00  0.55  0.00
  HS02004856HS02004862    1.00   0.00  0.28  0.00  0.72  0.00  0.00  0.00  0.66  0.00
  HS02004862HS02004870    1.00   0.00  0.00  0.00  1.00  0.00  0.00  0.00  0.04  0.00
  HS02004870HS02004876    1.00   0.02  0.00  0.00  0.98  0.01  0.00  0.00  0.81  0.00
  HS02004876HS02004881    1.00   0.06  0.00  0.00  0.73  0.21  0.00  0.00  0.00  0.00
  HS02004881HS02006253    1.00   0.03  0.08  0.00  0.52  0.02  0.00  0.35  0.32  0.00
  HS02004901HS02004770    1.00   0.25  0.00  0.00  0.75  0.00  0.00  0.00  0.00  0.00
  WS02001211WS02001212    1.00   0.00  0.07  0.00  0.93  0.00  0.00  0.00  0.00  0.00
  WS02001212WS02001213    1.00   0.07  0.00  0.00  0.45  0.00  0.48  0.00  0.00  0.00
  WS02001213WS02003059    1.00   0.01  0.02  0.00  0.97  0.00  0.00  0.00  0.00  0.00
  WS02003059WS02003060    1.00   0.00  0.00  0.00  0.99  0.01  0.00  0.00  0.04  0.00
  WS02003060WS02003069    1.00   0.00  0.00  0.00  0.93  0.07  0.00  0.00  0.23  0.00
  WS02003066WSF200        1.00   0.17  0.00  0.00  0.00  0.83  0.00  0.00  0.55  0.00
  WS02003067WS02003066    1.00   0.16  0.01  0.00  0.83  0.00  0.00  0.00  0.00  0.00
  WS02003069WS02003072    1.00   0.00  0.00  0.00  0.98  0.02  0.00  0.00  0.50  0.00
  WS02003072WS02003073    1.00   0.00  0.00  0.00  0.00  0.00  0.00  1.00  0.00  0.00
  WS02004138WS02004139    1.00   0.05  0.01  0.00  0.93  0.01  0.00  0.00  0.97  0.00
  WS02004139WS02001211    1.00   0.00  0.02  0.00  0.98  0.00  0.00  0.00  0.00  0.00
  WS02004401WS02004402    1.00   0.07  0.00  0.00  0.93  0.00  0.00  0.00  0.00  0.00
  WS02004402WS02004403    1.00   0.07  0.00  0.00  0.93  0.00  0.00  0.00  0.00  0.00
  WS02004403WS02004404    1.00   0.00  0.07  0.00  0.93  0.00  0.00  0.00  0.00  0.00
  WS02004404WS02004405    1.00   0.00  0.00  0.00  1.00  0.00  0.00  0.00  0.01  0.00
  WS02004405WS02004406    1.00   0.00  0.00  0.00  1.00  0.00  0.00  0.00  0.00  0.00
  WS02004406WS02004407    1.00   0.00  0.09  0.00  0.91  0.00  0.00  0.00  0.00  0.00
  WS02004407WS02004409    1.00   0.09  0.00  0.00  0.88  0.03  0.00  0.00  0.74  0.00
  WS02004409WS02004410    1.00   0.09  0.00  0.00  0.91  0.00  0.00  0.00  0.00  0.00
  WS02004410WS02004411    1.00   0.10  0.00  0.00  0.90  0.00  0.00  0.00  0.00  0.00
  WS02004411WS02004412    1.00   0.10  0.00  0.00  0.90  0.00  0.00  0.00  0.00  0.00
  WS02004412WS02004413    1.00   0.11  0.00  0.00  0.88  0.01  0.00  0.00  0.01  0.00
  WS02004413WS02003067    1.00   0.12  0.04  0.00  0.00  0.00  0.84  0.00  0.00  0.00
  WS02006109WS02006110    1.00   0.00  0.03  0.00  0.96  0.00  0.02  0.00  0.00  0.00
  WS02006110WS02006113    1.00   0.03  0.03  0.00  0.95  0.00  0.00  0.00  0.00  0.00
  WS02006111WS02006112    1.00   0.06  0.00  0.00  0.93  0.00  0.00  0.01  0.69  0.00
  WS02006112WS02006115    1.00   0.06  0.01  0.00  0.93  0.00  0.00  0.00  0.00  0.00
  WS02006113WS02006111    1.00   0.05  0.00  0.00  0.31  0.64  0.00  0.00  0.12  0.00
  WS02006115WS02006116    1.00   0.07  0.00  0.00  0.93  0.00  0.00  0.01  0.00  0.00
  WS02006116WS02004401    1.00   0.07  0.00  0.00  0.93  0.00  0.00  0.00  0.00  0.00
  WS02006228WS02006109    1.00   0.00  0.00  0.00  0.99  0.00  0.00  0.01  0.00  0.00
  WS02006229WS02006228    1.00   0.00  0.00  0.00  0.97  0.00  0.00  0.03  0.00  0.00
  WS02006230WS02006229    1.00   0.00  0.00  0.00  0.96  0.00  0.00  0.04  0.00  0.00
  WS02006231WS02006230    1.00   0.01  0.00  0.00  0.48  0.00  0.52  0.00  0.00  0.00
  WS02006232WS02006231    1.00   0.00  0.01  0.00  0.98  0.00  0.01  0.00  0.00  0.00
  WS02006234WS02006232    1.00   0.00  0.00  0.00  0.99  0.01  0.00  0.00  0.00  0.00
  WS02006235WS02006234    1.00   0.00  0.00  0.00  0.99  0.00  0.01  0.00  0.00  0.00
  WS02006238WS02006235    1.00   0.00  0.00  0.00  1.00  0.00  0.00  0.00  0.00  0.00
  WS02006239WS02006238    1.00   0.00  0.00  0.00  1.00  0.00  0.00  0.00  0.01  0.00
  WS02006240WS02006239    1.00   0.01  0.00  0.00  0.91  0.00  0.00  0.08  0.03  0.00
  WS02006242WS02006240    1.00   0.01  0.00  0.00  0.98  0.00  0.01  0.00  0.00  0.00
  WS02006243WS02006242    1.00   0.01  0.00  0.00  0.98  0.00  0.00  0.01  0.44  0.00
  WS02006245WS02006243    1.00   0.01  0.00  0.00  0.90  0.00  0.00  0.09  0.01  0.00
  WS02006247WS02006245    1.00   0.00  0.00  0.00  0.96  0.00  0.00  0.04  0.00  0.00
  WS02006248WS02006247    1.00   0.00  0.00  0.00  0.98  0.00  0.00  0.02  0.43  0.00
  WS02006249WS02006248    1.00   0.00  0.00  0.00  0.71  0.00  0.29  0.00  0.00  0.00
  WS02006251WS02006249    1.00   0.00  0.00  0.00  1.00  0.00  0.00  0.00  0.41  0.00
  WS02006252WS02006251    1.00   0.00  0.12  0.00  0.31  0.00  0.57  0.00  0.00  0.00
  WS02006253WS02006251    1.00   0.00  0.00  0.00  1.00  0.00  0.00  0.00  0.00  0.00
  WS02006256WS02006235    1.00   0.00  0.00  0.00  0.99  0.01  0.00  0.00  0.00  0.00
  WS02006280WS02006229    1.00   0.25  0.00  0.00  0.27  0.03  0.00  0.44  0.01  0.00
  WS02006284WS02006280    1.00   0.25  0.00  0.00  0.19  0.02  0.00  0.53  0.00  0.00
  WS02006287WS02006284    1.00   0.23  0.04  0.00  0.38  0.35  0.00  0.00  0.54  0.00
  WSF200WS02003060        1.00   0.00  0.17  0.00  0.42  0.41  0.00  0.00  0.46  0.00
  YS02001580YS02001583    1.00   0.40  0.30  0.00  0.30  0.00  0.00  0.00  0.56  0.00
  YS02001583YS02001586    1.00   0.27  0.37  0.00  0.36  0.00  0.00  0.00  0.56  0.00
  YS02001586YS02001590    1.00   0.25  0.00  0.00  0.59  0.05  0.00  0.11  0.49  0.00
  YS02001590YS02001593    1.00   0.25  0.00  0.00  0.21  0.00  0.54  0.00  0.00  0.00
  YS02001593YS02001596    1.00   0.25  0.00  0.00  0.24  0.01  0.00  0.50  0.03  0.00
  YS02001596YS02001600    1.00   0.25  0.00  0.00  0.32  0.02  0.00  0.41  0.06  0.00
  YS02001600YS02001601    1.00   0.25  0.00  0.00  0.75  0.00  0.00  0.00  0.47  0.00
  YS02001601YS02001602    1.00   0.25  0.01  0.00  0.75  0.00  0.00  0.00  0.00  0.00
  YS02001602YS02001605    1.00   0.25  0.00  0.00  0.75  0.00  0.00  0.00  0.00  0.00
  YS02001605YS02001607    1.00   0.25  0.00  0.00  0.75  0.00  0.00  0.00  0.00  0.00
  YS02001607YS02001610    1.00   0.25  0.00  0.00  0.75  0.00  0.00  0.00  0.02  0.00
  YS02001610YS02001613    1.00   0.25  0.00  0.00  0.75  0.00  0.00  0.00  0.01  0.00
  YS02001613YS02001616    1.00   0.25  0.00  0.00  0.75  0.00  0.00  0.00  0.01  0.00
  YS02001616YS02001619    1.00   0.25  0.00  0.00  0.75  0.00  0.00  0.00  0.00  0.00
  YS02001619YS02001622    1.00   0.25  0.00  0.00  0.75  0.00  0.00  0.00  0.05  0.00
  YS02001622YS02001625    1.00   0.25  0.00  0.00  0.75  0.00  0.00  0.00  0.05  0.00
  YS02001625YS02001629    1.00   0.25  0.05  0.00  0.27  0.00  0.43  0.00  0.00  0.00
  YS02001629YS02163301    1.00   0.26  0.01  0.00  0.73  0.00  0.00  0.00  0.00  0.00
  YS02001633YS02163601    1.00   0.00  0.02  0.00  0.98  0.00  0.00  0.00  0.19  0.00
  YS02001641YS02001644    1.00   0.00  0.02  0.00  0.98  0.00  0.00  0.00  0.00  0.00
  YS02001644YS02001647    1.00   0.00  0.28  0.00  0.72  0.00  0.00  0.00  0.00  0.00
  YS02001647YS02001649    1.00   0.00  0.28  0.00  0.36  0.35  0.00  0.00  0.42  0.00
  YS02001649YS02001757    1.00   0.00  0.00  0.00  0.76  0.23  0.00  0.00  0.81  0.00
  YS02001652YS02001649    1.00   0.00  0.00  0.00  0.95  0.05  0.00  0.00  0.65  0.00
  YS02001655YS02001652    1.00   0.00  0.00  0.00  0.30  0.02  0.00  0.68  0.14  0.00
  YS02001658YS02001655    1.00   0.00  0.25  0.00  0.38  0.37  0.00  0.00  0.65  0.00
  YS02001661YS02001658    1.00   0.25  0.00  0.00  0.20  0.55  0.00  0.00  0.64  0.00
  YS02001664YS02001661    1.00   0.25  0.00  0.00  0.51  0.24  0.00  0.00  0.82  0.00
  YS02001745YS02001748    1.00   0.00  0.00  0.00  0.06  0.02  0.00  0.92  0.03  0.00
  YS02001748YS02001751    1.00   0.00  0.00  0.00  0.64  0.36  0.00  0.00  0.77  0.00
  YS02001751YS02001754    1.00   0.00  0.00  0.00  0.21  0.02  0.00  0.77  0.07  0.00
  YS02001754YS02001757    1.00   0.00  0.00  0.00  1.00  0.00  0.00  0.00  0.80  0.00
  YS02001757CaochengTiaoxuchi    1.00   0.00  0.00  0.00  0.50  0.50  0.00  0.00  0.40  0.00
  YS02001759YS02001757    1.00   0.00  0.00  0.00  1.00  0.00  0.00  0.00  0.57  0.00
  YS02001762YS02001759    1.00   0.00  0.00  0.00  1.00  0.00  0.00  0.00  0.05  0.00
  YS02001765YS02001762    1.00   0.00  0.00  0.00  1.00  0.00  0.00  0.00  0.63  0.00
  YS02001767YS02001765    1.00   0.00  0.00  0.00  1.00  0.00  0.00  0.00  0.00  0.00
  YS02001770YS02001767    1.00   0.00  0.00  0.00  1.00  0.00  0.00  0.00  0.00  0.00
  YS02001774YS02001770    1.00   0.01  0.24  0.00  0.75  0.00  0.00  0.00  0.04  0.00
  YS02001779YS02001774    1.00   0.00  0.00  0.00  1.00  0.00  0.00  0.00  0.71  0.00
  YS02001783YS02001784    1.00   0.00  0.30  0.00  0.70  0.00  0.00  0.00  0.40  0.00
  YS02001784YS02001785    1.00   0.00  0.00  0.00  1.00  0.00  0.00  0.00  0.22  0.00
  YS02001786YS02001788    1.00   0.00  0.00  0.00  0.71  0.29  0.00  0.00  0.00  0.00
  YS02001788YS02001790    1.00   0.00  0.00  0.00  0.38  0.62  0.00  0.00  0.73  0.00
  YS02001790YS02001791    1.00   0.00  0.00  0.00  0.04  0.96  0.00  0.00  0.22  0.00
  YS02001791YS02001793    1.00   0.00  0.00  0.00  0.03  0.97  0.00  0.00  0.05  0.00
  YS02001793JiankangQianchi    1.00   0.00  0.01  0.00  0.17  0.82  0.00  0.00  0.17  0.00
  YS02001882YS02001884    1.00   0.26  0.01  0.00  0.73  0.00  0.00  0.00  0.00  0.00
  YS02001884YS02001887    1.00   0.13  0.11  0.00  0.76  0.00  0.00  0.00  0.00  0.00
  YS02001887YS02001890    1.00   0.00  0.01  0.00  0.93  0.00  0.06  0.00  0.00  0.00
  YS02001890YS02001895    1.00   0.01  0.27  0.00  0.73  0.00  0.00  0.00  0.00  0.00
  YS02001895YS02001898    1.00   0.27  0.00  0.00  0.68  0.00  0.04  0.00  0.00  0.00
  YS02001898YS02001901    1.00   0.28  0.00  0.00  0.72  0.00  0.00  0.00  0.01  0.00
  YS02001901YS02001904    1.00   0.28  0.00  0.00  0.72  0.00  0.00  0.00  0.00  0.00
  YS02001904YS02001907    1.00   0.01  0.27  0.00  0.72  0.00  0.00  0.00  0.00  0.00
  YS02001907YS02006553    1.00   0.01  0.06  0.00  0.93  0.00  0.00  0.00  0.00  0.00
  YS02001910YS02001907    1.00   0.00  0.00  0.00  0.93  0.00  0.00  0.07  0.16  0.00
  YS02001915YS02001910    1.00   0.00  0.00  0.00  0.95  0.04  0.00  0.00  0.19  0.00
  YS02001918YS02001915    1.00   0.00  0.02  0.00  0.94  0.04  0.00  0.00  0.66  0.00
  YS02001920YS02001918    1.00   0.00  0.02  0.00  0.98  0.00  0.00  0.00  0.00  0.00
  YS02001923YS02001920    1.00   0.00  0.00  0.00  1.00  0.00  0.00  0.00  0.90  0.00
  YS02001926YS02001923    1.00   0.00  0.15  0.00  0.11  0.00  0.74  0.00  0.00  0.00
  YS02001929YS02001926    1.00   0.00  0.25  0.00  0.75  0.00  0.00  0.00  0.77  0.00
  YS02006553YS02006556    1.00   0.04  0.00  0.00  0.96  0.00  0.00  0.00  0.04  0.00
  YS02006556YS02006558    1.00   0.00  0.01  0.00  0.99  0.00  0.00  0.00  0.00  0.00
  YS02006558YS02006561    1.00   0.30  0.00  0.00  0.10  0.60  0.00  0.00  0.25  0.00
  YS02006561YS02001783    1.00   0.30  0.00  0.00  0.16  0.53  0.00  0.00  0.58  0.00
  YS02163301YS02001633    1.00   0.00  0.26  0.00  0.74  0.00  0.00  0.00  0.00  0.00
  YS02163601YS02164001    1.00   0.00  0.16  0.00  0.84  0.00  0.00  0.00  0.00  0.00
  YS02164001YS02001641    1.00   0.02  0.14  0.00  0.84  0.00  0.00  0.00  0.07  0.00
  YSB1154YSB6556          1.00   0.25  0.00  0.00  0.75  0.00  0.00  0.00  0.02  0.00
  YSB1171HS02004479       1.00   0.08  0.00  0.00  0.88  0.01  0.00  0.03  0.13  0.00
  YSB1174YSB1171          1.00   0.10  0.10  0.00  0.80  0.00  0.00  0.00  0.00  0.00
  YSB6556YSB1171          1.00   0.08  0.17  0.00  0.75  0.00  0.00  0.00  0.00  0.00
  
  
  *************************
  Conduit Surcharge Summary
  *************************
  
  ----------------------------------------------------------------------------
                                                           Hours        Hours 
                         --------- Hours Full --------   Above Full   Capacity
  Conduit                Both Ends  Upstream  Dnstream   Normal Flow   Limited
  ----------------------------------------------------------------------------
  HS02004478WS02006287        0.44      0.44      0.64      0.01         0.01
  HS02004479HS02004480        0.64      0.64      0.66      0.01         0.01
  HS02004480HS02004478        0.55      0.63      0.55      1.73         0.55
  HS02004770HS02004777        0.52      0.53      0.53      0.12         0.08
  HS02004777HS02004785        0.48      0.48      0.53      0.01         0.01
  HS02004785HS02004788        0.47      0.48      0.47      1.51         0.45
  HS02004788HS02004792        0.47      0.47      0.59      0.01         0.01
  HS02004792HS02004799        0.59      0.59      0.73      0.01         0.01
  HS02004799HS02004480        0.63      0.63      0.73      0.85         0.01
  HS02004802HS02004478        0.57      0.57      0.65      0.01         0.01
  HS02004807HS02004802        0.62      0.62      0.64      0.18         0.19
  HS02004817HS02004807        0.62      0.62      1.32      0.01         0.01
  HS02004817HS02004824        0.46      0.46      1.32      0.01         0.01
  HS02004824HS02004830        0.43      0.43      0.46      0.01         0.01
  HS02004830HS02004837        0.38      0.38      0.44      0.01         0.01
  HS02004837HS02004842        0.38      0.38      0.54      0.01         0.01
  HS02004842HS02004848        0.33      0.33      0.54      0.01         0.01
  HS02004848HS02004852        0.34      0.34      0.38      0.02         0.01
  HS02004852HS02004856        0.38      0.38      0.40      0.02         0.01
  HS02004856HS02004862        0.33      0.33      0.40      0.01         0.01
  HS02004862HS02004870        0.40      0.40      0.42      0.01         0.08
  HS02004870HS02004876        0.42      0.42      0.48      0.01         0.01
  HS02004876HS02004881        0.46      0.48      0.46      1.52         0.46
  HS02004881HS02006253        0.46      0.46      1.51      0.01         0.01
  HS02004901HS02004770        0.53      0.53      0.53      0.01         0.01
  WS02003072WS02003073        0.01      0.01      0.01      2.57         0.01
  WS02004401WS02004402        1.59      1.59      1.61      1.49         1.49
  WS02004402WS02004403        1.61      1.61      1.61      1.59         1.58
  WS02004403WS02004404        1.61      1.61      1.68      0.01         0.01
  WS02004404WS02004405        1.67      1.68      1.67      3.46         1.67
  WS02004405WS02004406        1.65      1.67      1.65      1.88         1.65
  WS02004406WS02004407        0.01      0.01      1.65      0.01         0.01
  WS02004407WS02004409        0.01      0.01      1.10      0.01         0.01
  WS02004409WS02004410        1.01      1.10      1.01      1.53         1.01
  WS02004410WS02004411        0.89      1.01      0.89      1.56         0.89
  WS02004411WS02004412        0.77      0.89      0.77      1.58         0.77
  WS02004412WS02004413        0.77      0.77      1.43      0.01         0.01
  WS02004413WS02003067        0.01      0.01      1.43      0.01         0.01
  WS02006109WS02006110        1.83      1.83      2.17      1.83         0.01
  WS02006110WS02006113        1.41      1.41      2.10      0.30         0.01
  WS02006111WS02006112        1.39      1.39      2.45      0.01         0.01
  WS02006112WS02006115        1.53      1.53      1.91      0.01         0.01
  WS02006113WS02006111        1.40      1.41      1.40      1.50         1.40
  WS02006115WS02006116        1.54      1.54      1.55      1.54         1.52
  WS02006116WS02004401        1.58      1.58      1.59      1.59         1.56
  WS02006228WS02006109        2.06      2.17      2.06      2.61         2.06
  WS02006229WS02006228        2.05      2.07      2.05      2.39         2.05
  WS02006230WS02006229        2.26      2.33      2.26      4.09         1.22
  WS02006231WS02006230        1.72      1.72      1.76      3.24         1.03
  WS02006232WS02006231        1.75      1.75      1.92      0.01         0.12
  WS02006234WS02006232        1.79      1.79      1.92      0.01         0.01
  WS02006235WS02006234        1.77      1.77      1.80      2.85         1.01
  WS02006238WS02006235        1.81      1.81      1.88      0.01         0.35
  WS02006239WS02006238        1.79      1.82      1.81      1.12         0.08
  WS02006240WS02006239        1.74      1.74      1.76      1.11         0.08
  WS02006242WS02006240        1.73      1.73      1.88      1.37         0.90
  WS02006243WS02006242        1.70      1.70      1.82      0.01         0.01
  WS02006245WS02006243        1.67      1.67      1.69      0.30         0.07
  WS02006247WS02006245        1.67      1.69      1.67      2.39         0.30
  WS02006248WS02006247        1.64      1.64      1.67      0.01         0.01
  WS02006249WS02006248        1.63      1.63      1.64      1.00         0.01
  WS02006251WS02006249        1.63      1.66      1.64      1.60         1.31
  WS02006252WS02006251        1.80      1.80      1.94      0.90         0.01
  WS02006253WS02006251        1.64      1.64      1.70      0.77         0.02
  WS02006256WS02006235        3.10      3.10      5.97      0.59         0.01
  WS02006280WS02006229        0.78      0.78      0.94      0.01         0.01
  WS02006284WS02006280        0.66      0.66      0.76      0.01         0.01
  WS02006287WS02006284        0.54      0.54      0.68      0.23         0.23
  YS02001580YS02001583        0.56      0.56      0.60      0.01         0.01
  YS02001583YS02001586        0.57      0.57      0.68      0.01         0.01
  YS02001586YS02001590        0.69      0.69      0.77      0.01         0.01
  YS02001590YS02001593        0.77      0.77      0.79      0.83         0.01
  YS02001593YS02001596        0.78      0.78      0.89      0.01         0.01
  YS02001596YS02001600        0.95      0.95      1.09      0.01         0.01
  YS02001600YS02001601        1.17      1.17      1.48      0.01         0.01
  YS02001601YS02001602        1.38      1.38      1.52      1.12         0.01
  YS02001602YS02001605        1.32      1.32      1.38      2.30         0.01
  YS02001605YS02001607        1.27      1.32      1.27      1.45         1.27
  YS02001607YS02001610        0.69      0.69      0.73      0.01         0.01
  YS02001610YS02001613        0.68      0.68      0.73      0.01         0.01
  YS02001613YS02001616        0.63      0.63      0.68      0.01         0.01
  YS02001616YS02001619        0.62      0.62      0.63      0.01         0.01
  YS02001619YS02001622        0.60      0.62      0.60      0.82         0.59
  YS02001622YS02001625        0.60      0.60      0.83      0.01         0.01
  YS02001625YS02001629        0.49      0.49      0.83      0.01         0.01
  YS02001629YS02163301        0.81      0.81      0.82      0.40         0.40
  YS02001633YS02163601        0.84      0.84      0.87      0.54         0.54
  YS02001641YS02001644        0.63      0.70      0.63      1.55         0.62
  YS02001644YS02001647        0.35      0.35      0.63      0.04         0.01
  YS02001647YS02001649        0.35      0.35      0.38      0.01         0.01
  YS02001649YS02001757        0.36      0.38      0.36      0.44         0.30
  YS02001652YS02001649        0.28      0.28      0.38      0.01         0.01
  YS02001655YS02001652        0.19      0.19      0.26      0.01         0.01
  YS02001658YS02001655        0.09      0.09      0.19      0.01         0.01
  YS02001661YS02001658        0.01      0.01      0.09      0.01         0.01
  YS02001745YS02001748        0.01      0.01      0.01      0.01         0.01
  YS02001748YS02001751        0.07      0.07      0.11      0.01         0.01
  YS02001751YS02001754        0.11      0.11      0.18      0.01         0.01
  YS02001754YS02001757        0.20      0.20      0.36      0.01         0.01
  YS02001757CaochengTiaoxuchi        0.01      0.36      0.65      0.47         0.01
  YS02001759YS02001757        0.32      0.32      0.36      0.01         0.01
  YS02001762YS02001759        0.30      0.30      0.32      0.01         0.02
  YS02001765YS02001762        0.28      0.28      0.30      0.01         0.01
  YS02001767YS02001765        0.27      0.27      0.28      0.01         0.03
  YS02001770YS02001767        0.27      0.27      0.27      0.56         0.26
  YS02001774YS02001770        0.26      0.26      0.30      0.01         0.01
  YS02001779YS02001774        0.20      0.20      0.30      0.01         0.01
  YS02001783YS02001784        0.48      0.51      0.48      0.68         0.48
  YS02001784YS02001785        0.37      0.48      0.37      0.96         0.37
  YS02001786YS02001788        0.01      0.37      0.01      0.79         0.01
  YS02001790YS02001791        0.01      0.01      0.01      0.47         0.01
  YS02001791YS02001793        0.01      0.01      0.14      0.01         0.01
  YS02001793JiankangQianchi        0.01      0.01      0.57      0.01         0.01
  YS02001882YS02001884        0.45      0.45      0.46      0.01         0.01
  YS02001884YS02001887        0.49      0.49      0.50      0.01         0.01
  YS02001887YS02001890        0.51      0.51      0.53      0.01         0.01
  YS02001890YS02001895        0.44      0.44      0.54      0.01         0.01
  YS02001895YS02001898        0.43      0.43      0.44      0.01         0.01
  YS02001898YS02001901        0.44      0.44      0.49      0.01         0.01
  YS02001901YS02001904        0.48      0.48      0.49      0.01         0.01
  YS02001904YS02001907        0.48      0.48      0.78      0.01         0.01
  YS02001907YS02006553        0.97      0.97      1.05      0.01         0.01
  YS02001910YS02001907        0.54      0.54      0.75      0.01         0.01
  YS02001915YS02001910        0.45      0.45      0.54      0.01         0.01
  YS02001918YS02001915        0.36      0.36      0.45      0.01         0.01
  YS02001920YS02001918        0.36      0.36      0.37      0.01         0.01
  YS02001923YS02001920        0.31      0.31      0.37      0.01         0.01
  YS02001926YS02001923        0.01      0.01      0.01      0.01         0.01
  YS02001929YS02001926        0.01      0.01      0.01      0.01         0.01
  YS02006553YS02006556        0.65      0.65      0.78      0.01         0.01
  YS02006556YS02006558        0.71      0.71      0.79      0.01         0.01
  YS02006558YS02006561        0.39      0.64      0.39      0.90         0.39
  YS02006561YS02001783        0.32      0.32      0.51      0.01         0.01
  YS02163301YS02001633        0.82      0.82      0.87      0.01         0.01
  YS02163601YS02164001        0.73      0.73      0.87      0.33         0.01
  YS02164001YS02001641        0.70      0.73      0.70      0.84         0.61
  YSB1154YSB6556              0.70      0.70      0.88      0.01         0.01
  YSB1171HS02004479           0.58      0.58      0.89      0.01         0.01
  YSB1174YSB1171              0.77      0.77      1.19      0.01         0.01
  YSB6556YSB1171              0.70      0.70      1.40      0.01         0.01
  
  
  ***************
  Pumping Summary
  ***************
  
  ---------------------------------------------------------------------------------------------------------
                                                  Min       Avg       Max     Total     Power    % Time Off
                        Percent   Number of      Flow      Flow      Flow    Volume     Usage    Pump Curve
  Pump                 Utilized   Start-Ups       LPS       LPS       LPS  10^6 ltr     Kw-hr    Low   High
  ---------------------------------------------------------------------------------------------------------
  CC-R1                   83.30           6      0.00    459.36    683.00     7.599    124.83    0.0   87.1
  CC-R2                   44.50           7      0.00    505.77    683.00     4.316     70.78    0.0   82.8
  CC-S1                   52.83           9      0.00    150.31    200.00     1.526     12.68    0.0   68.1
  CC-S2                   19.47           4      0.00    164.78    200.00     0.690      6.17    0.0   75.3
  JK-R1                   61.05           8      0.00    321.22   1000.00     3.273     10.59    0.0    0.0
  JK-R2                   27.81           7      0.00    273.65   1000.00     1.286      2.80    0.0    0.0
  JK-S                    52.85           8      0.00    147.04    300.00     1.378     25.41    0.0    0.0
  XR-1                    97.22           1      0.00     95.00     95.00     1.995      8.84    0.0    0.0
  XR-2                    91.93           1      0.00     95.00     95.00     1.886      8.00    0.0    0.0
  XR-3                     0.00           0      0.00      0.00      0.00     0.000      0.00    0.0    0.0
  XR-4                     0.00           0      0.00      0.00      0.00     0.000      0.00    0.0    0.0
  

  Analysis begun on:  Mon Aug 22 16:56:09 2022
  Analysis ended on:  Mon Aug 22 16:56:13 2022
  Total elapsed time: 00:00:04