
  EPA STORM WATER MANAGEMENT MODEL - VERSION 5.1 (Build 5.3.0.dev0)
  --------------------------------------------------------------

  WARNING 04: minimum elevation drop used for Conduit WS02004404WS02004405
  WARNING 03: negative offset ignored for Link YS02001904YS02001907
  
  *********************************************************
  NOTE: The summary statistics displayed in this report are
  based on results found at every computational time step,  
  not just on results from each reporting time step.
  *********************************************************
  
  ****************
  Analysis Options
  ****************
  Flow Units ............... LPS
  Process Models:
    Rainfall/Runoff ........ YES
    RDII ................... NO
    Snowmelt ............... NO
    Groundwater ............ NO
    Flow Routing ........... YES
    Ponding Allowed ........ NO
    Water Quality .......... NO
  Infiltration Method ...... HORTON
  Flow Routing Method ...... DYNWAVE
  Surcharge Method ......... EXTRAN
  Starting Date ............ 01/01/2000 00:00:00
  Ending Date .............. 01/01/2000 06:00:00
  Antecedent Dry Days ...... 8.0
  Report Time Step ......... 00:01:00
  Wet Time Step ............ 00:01:00
  Dry Time Step ............ 00:01:00
  Routing Time Step ........ 30.00 sec
  Variable Time Step ....... YES
  Maximum Trials ........... 8
  Number of Threads ........ 4
  Head Tolerance ........... 0.001500 m
  
  
  **************************        Volume         Depth
  Runoff Quantity Continuity     hectare-m            mm
  **************************     ---------       -------
  Total Precipitation ......         2.632        43.448
  Evaporation Loss .........         0.000         0.000
  Infiltration Loss ........         0.230         3.800
  Surface Runoff ...........         2.338        38.588
  Final Storage ............         0.065         1.067
  Continuity Error (%) .....        -0.018
  
  
  **************************        Volume        Volume
  Flow Routing Continuity        hectare-m      10^6 ltr
  **************************     ---------     ---------
  Dry Weather Inflow .......         0.472         4.722
  Wet Weather Inflow .......         2.338        23.379
  Groundwater Inflow .......         0.000         0.000
  RDII Inflow ..............         0.000         0.000
  External Inflow ..........         0.078         0.784
  External Outflow .........         2.462        24.622
  Flooding Loss ............         0.727         7.265
  Evaporation Loss .........         0.000         0.000
  Exfiltration Loss ........         0.000         0.000
  Initial Stored Volume ....         0.303         3.031
  Final Stored Volume ......         0.169         1.694
  Continuity Error (%) .....        -5.221
  
  
  *************************
  Highest Continuity Errors
  *************************
  Node JK-storage (-25.49%)
  Node YS02001583 (-8.31%)
  Node CC-storage (-6.65%)
  Node YS02001884 (5.10%)
  Node YS02001774 (1.65%)
  
  
  ***************************
  Time-Step Critical Elements
  ***************************
  Link WS02006252WS02006251 (50.64%)
  Link WS02006280WS02006229 (18.16%)
  Link WS02006238WS02006235 (10.63%)
  Link WS02003066WSF200 (4.00%)
  Link YS02001793JiankangQianchi (2.98%)
  
  
  ********************************
  Highest Flow Instability Indexes
  ********************************
  Link WS02006113WS02006111 (39)
  Link WS02006111WS02006112 (20)
  Link WS02006238WS02006235 (15)
  Link WS02004404WS02004405 (14)
  Link WS02004403WS02004404 (12)
  
  
  *************************
  Routing Time Step Summary
  *************************
  Minimum Time Step           :     0.50 sec
  Average Time Step           :     1.50 sec
  Maximum Time Step           :    14.54 sec
  Percent in Steady State     :    -0.00
  Average Iterations per Step :     2.95
  Percent Not Converging      :     9.69
  
  
  ***************************
  Subcatchment Runoff Summary
  ***************************
  
  ------------------------------------------------------------------------------------------------------------------------------
                            Total      Total      Total      Total     Imperv       Perv      Total       Total     Peak  Runoff
                           Precip      Runon       Evap      Infil     Runoff     Runoff     Runoff      Runoff   Runoff   Coeff
  Subcatchment                 mm         mm         mm         mm         mm         mm         mm    10^6 ltr      LPS
  ------------------------------------------------------------------------------------------------------------------------------
  sub0                      43.45       0.00       0.00       0.99      39.14       2.05      41.19        0.03    17.49   0.948
  sub1                      43.45       0.00       0.00       1.67      37.36       3.11      40.47        0.27   120.69   0.932
  sub10                     43.45       0.00       0.00       1.18      38.63       2.29      40.93        0.45   206.03   0.942
  sub11                     43.45       0.00       0.00       1.17      38.67       2.31      40.98        0.48   224.32   0.943
  sub12                     43.45       0.00       0.00       1.90      36.60       3.75      40.35        0.35   174.39   0.929
  sub14                     43.45       0.00       0.00       1.33      38.23       2.58      40.82        0.39   180.61   0.939
  sub15                     43.45       0.00       0.00       5.08      29.40       7.95      37.36        0.64   269.44   0.860
  sub16                     43.45       0.00       0.00       5.30      28.18       9.04      37.22        0.39   174.83   0.857
  sub17                     43.45       0.00       0.00       5.17      28.60       8.74      37.34        0.32   142.98   0.859
  sub2                      43.45       0.00       0.00       7.13      26.41       8.95      35.36        0.33   118.34   0.814
  sub22                     43.45       0.00       0.00       7.65      23.96      11.03      34.99        2.21   867.72   0.805
  sub23                     43.45       0.00       0.00       6.28      26.49       9.80      36.28        1.73   724.12   0.835
  sub3                      43.45       0.00       0.00       7.66      26.34       8.41      34.75        0.78   253.08   0.800
  sub4                      43.45       0.00       0.00       1.83      37.07       2.95      40.01        0.83   283.65   0.921
  sub5                      43.45       0.00       0.00       1.03      39.04       2.01      41.05        0.47   209.47   0.945
  sub60                     43.45       0.00       0.00       1.78      37.00       3.43      40.43        0.53   251.83   0.930
  sub61                     43.45       0.00       0.00       2.58      34.90       4.81      39.71        0.73   345.06   0.914
  sub62                     43.45       0.00       0.00       1.19      38.62       2.29      40.91        1.12   506.56   0.942
  sub63                     43.45       0.00       0.00       4.70      29.85       7.90      37.75        0.86   380.76   0.869
  sub64                     43.45       0.00       0.00       2.38      35.65       4.14      39.79        0.96   408.43   0.916
  sub65                     43.45       0.00       0.00       2.06      36.46       3.59      40.05        1.10   457.88   0.922
  sub66                     43.45       0.00       0.00       5.66      29.66       6.94      36.60        1.71   571.27   0.842
  sub67                     43.45       0.00       0.00       1.15      38.70       2.33      41.03        0.76   375.86   0.944
  sub68                     43.45       0.00       0.00       2.13      36.13       3.95      40.09        1.10   509.24   0.923
  sub69                     43.45       0.00       0.00       1.86      36.73       4.65      41.39        1.53   621.46   0.953
  sub7                      43.45       0.00       0.00       1.31      38.26       2.60      40.86        0.14    65.59   0.940
  sub70                     43.45       0.00       0.00       5.97      28.38       8.80      37.18        1.07   326.66   0.856
  sub71                     43.45       0.00       0.00       1.21      38.55       2.26      40.81        1.07   448.65   0.939
  sub72                     43.45       0.00       0.00       1.08      38.86       1.96      40.83        0.56   214.52   0.940
  sub8                      43.45       0.00       0.00       1.33      38.24       2.59      40.83        0.26   122.23   0.940
  sub9                      43.45       0.00       0.00       1.33      38.24       2.58      40.82        0.20    91.60   0.940
  
  
  ******************
  Node Depth Summary
  ******************
  
  ---------------------------------------------------------------------------------
                                 Average  Maximum  Maximum  Time of Max    Reported
                                   Depth    Depth      HGL   Occurrence   Max Depth
  Node                 Type       Meters   Meters   Meters  days hr:min      Meters
  ---------------------------------------------------------------------------------
  HS02004478           JUNCTION     0.16     1.60    10.83     0  01:42        1.54
  HS02004479           JUNCTION     0.23     1.73    10.94     0  01:42        1.67
  HS02004480           JUNCTION     0.20     1.71    10.96     0  01:42        1.65
  HS02004770           JUNCTION     0.21     1.42    11.25     0  01:39        1.42
  HS02004777           JUNCTION     0.23     1.48    11.28     0  01:39        1.44
  HS02004785           JUNCTION     0.14     1.49    11.39     0  01:39        1.32
  HS02004788           JUNCTION     0.11     1.42    11.32     0  01:39        1.30
  HS02004792           JUNCTION     0.15     1.60    11.12     0  01:38        1.60
  HS02004799           JUNCTION     0.26     1.76    10.97     0  01:42        1.76
  HS02004802           JUNCTION     0.24     1.81    10.94     0  01:42        1.75
  HS02004807           JUNCTION     0.21     1.92    11.09     0  01:42        1.87
  HS02004817           JUNCTION     0.48     2.44    11.29     0  01:42        2.30
  HS02004824           JUNCTION     0.10     2.01    11.41     0  01:42        1.84
  HS02004830           JUNCTION     0.11     2.03    11.50     0  01:42        1.87
  HS02004837           JUNCTION     0.08     2.00    11.58     0  01:42        1.84
  HS02004842           JUNCTION     0.35     2.22    11.49     0  01:42        2.22
  HS02004848           JUNCTION     0.06     1.97    11.57     0  01:42        1.85
  HS02004852           JUNCTION     0.07     1.98    11.49     0  01:42        1.85
  HS02004856           JUNCTION     0.12     2.00    11.43     0  01:42        1.85
  HS02004862           JUNCTION     0.08     1.97    11.36     0  01:42        1.77
  HS02004870           JUNCTION     0.07     1.94    11.23     0  01:42        1.71
  HS02004876           JUNCTION     0.11     2.01    11.04     0  01:42        1.77
  HS02004881           JUNCTION     0.06     1.77    10.80     0  01:42        1.54
  HS02004901           JUNCTION     0.21     1.42    11.24     0  01:39        1.42
  WS02001211           JUNCTION     0.62     0.80     5.64     0  01:48        0.80
  WS02001212           JUNCTION     0.36     0.57     5.63     0  01:44        0.56
  WS02001213           JUNCTION     0.57     0.87     5.63     0  01:44        0.87
  WS02003059           JUNCTION     0.64     0.93     5.62     0  01:45        0.92
  WS02003060           JUNCTION     0.37     0.67     5.61     0  01:46        0.67
  WS02003066           JUNCTION     0.23     0.44     6.00     0  01:45        0.44
  WS02003067           JUNCTION     0.55     0.88     6.20     0  01:45        0.88
  WS02003069           JUNCTION     0.42     0.76     5.35     0  01:46        0.76
  WS02003072           JUNCTION     0.47     0.80     5.17     0  01:46        0.80
  WS02003073           JUNCTION     0.28     0.50     4.57     0  01:47        0.50
  WS02004138           JUNCTION     0.13     0.14     7.39     0  00:33        0.14
  WS02004139           JUNCTION     0.55     0.73     5.64     0  01:43        0.73
  WS02004401           JUNCTION     0.76     1.79     7.79     0  01:34        1.71
  WS02004402           JUNCTION     0.78     1.75     7.71     0  01:34        1.66
  WS02004403           JUNCTION     0.79     1.68     7.61     0  01:34        1.60
  WS02004404           JUNCTION     0.85     1.69     7.54     0  01:34        1.61
  WS02004405           JUNCTION     0.84     1.62     7.47     0  01:34        1.57
  WS02004406           JUNCTION     0.83     1.52     7.35     0  01:33        1.47
  WS02004407           JUNCTION     0.26     0.82     7.13     0  01:45        0.82
  WS02004409           JUNCTION     0.54     1.32     7.09     0  01:45        1.31
  WS02004410           JUNCTION     0.55     1.24     6.96     0  01:45        1.23
  WS02004411           JUNCTION     0.55     1.16     6.84     0  01:44        1.16
  WS02004412           JUNCTION     0.55     1.07     6.71     0  01:45        1.07
  WS02004413           JUNCTION     0.69     1.13     6.60     0  01:45        1.12
  WS02006109           JUNCTION     0.96     2.64     9.26     0  01:38        2.64
  WS02006110           JUNCTION     0.91     2.34     8.93     0  01:39        2.33
  WS02006111           JUNCTION     0.39     1.66     8.37     0  01:34        1.58
  WS02006112           JUNCTION     0.98     2.28     8.17     0  01:34        2.19
  WS02006113           JUNCTION     0.48     1.73     8.63     0  01:34        1.72
  WS02006115           JUNCTION     0.69     1.88     8.02     0  01:34        1.79
  WS02006116           JUNCTION     0.75     1.89     7.93     0  01:34        1.79
  WS02006228           JUNCTION     1.01     3.03     9.68     0  01:42        3.02
  WS02006229           JUNCTION     1.01     3.23     9.93     0  01:42        3.22
  WS02006230           JUNCTION     0.97     2.65     9.39     0  01:38        2.65
  WS02006231           JUNCTION     0.71     2.19     9.31     0  01:39        2.19
  WS02006232           JUNCTION     0.82     2.18     9.22     0  01:38        2.18
  WS02006234           JUNCTION     0.71     1.96     9.12     0  01:30        1.96
  WS02006235           JUNCTION     0.73     2.00     9.16     0  02:20        1.93
  WS02006238           JUNCTION     0.76     2.03     9.18     0  02:20        1.93
  WS02006239           JUNCTION     0.71     1.89     9.10     0  02:20        1.78
  WS02006240           JUNCTION     0.65     1.96     9.25     0  01:31        1.62
  WS02006242           JUNCTION     0.70     1.55     8.82     0  00:10        1.55
  WS02006243           JUNCTION     0.58     1.48     8.90     0  01:31        1.36
  WS02006245           JUNCTION     0.56     1.56     9.04     0  01:31        1.26
  WS02006247           JUNCTION     0.57     1.47     8.97     0  03:02        1.23
  WS02006248           JUNCTION     0.51     1.10     8.69     0  01:31        1.10
  WS02006249           JUNCTION     0.54     1.09     8.69     0  01:31        1.09
  WS02006251           JUNCTION     0.56     2.21     9.88     0  01:42        2.11
  WS02006252           JUNCTION     0.37     1.50     9.74     0  00:00        1.50
  WS02006253           JUNCTION     0.61     2.96    10.61     0  01:42        2.80
  WS02006256           JUNCTION     1.11     2.35     9.28     0  00:10        2.35
  WS02006280           JUNCTION     0.22     1.76    10.03     0  01:42        1.74
  WS02006284           JUNCTION     0.46     1.97    10.37     0  01:42        1.93
  WS02006287           JUNCTION     0.21     1.76    10.72     0  01:42        1.70
  WSF200               JUNCTION     0.23     0.51     5.74     0  01:46        0.51
  YS02001580           JUNCTION     0.05     1.05     9.59     0  01:40        0.76
  YS02001583           JUNCTION     0.07     1.11     9.61     0  01:40        0.81
  YS02001586           JUNCTION     0.13     1.13     9.30     0  01:40        1.13
  YS02001590           JUNCTION     0.22     1.40     9.26     0  01:40        1.37
  YS02001593           JUNCTION     0.15     1.35     9.21     0  01:40        1.28
  YS02001596           JUNCTION     0.21     1.69     9.11     0  01:40        1.65
  YS02001600           JUNCTION     0.28     1.87     9.00     0  01:40        1.86
  YS02001601           JUNCTION     0.45     2.06     8.90     0  01:39        2.06
  YS02001602           JUNCTION     0.37     1.87     8.77     0  01:40        1.87
  YS02001605           JUNCTION     0.34     1.78     8.68     0  01:40        1.77
  YS02001607           JUNCTION     0.33     1.65     8.49     0  01:48        1.64
  YS02001610           JUNCTION     0.36     1.68     8.48     0  01:40        1.68
  YS02001613           JUNCTION     0.33     1.67     8.51     0  01:40        1.64
  YS02001616           JUNCTION     0.27     1.61     8.52     0  01:40        1.57
  YS02001619           JUNCTION     0.25     1.59     8.52     0  01:40        1.55
  YS02001622           JUNCTION     0.24     1.62     8.52     0  01:40        1.54
  YS02001625           JUNCTION     0.45     1.78     8.38     0  01:40        1.78
  YS02001629           JUNCTION     0.34     1.85     8.40     0  01:40        1.82
  YS02001633           JUNCTION     0.40     1.90     8.36     0  01:45        1.87
  YS02001641           JUNCTION     0.38     1.73     8.17     0  01:46        1.70
  YS02001644           JUNCTION     0.37     1.68     8.11     0  01:46        1.64
  YS02001647           JUNCTION     0.19     1.36     7.97     0  01:46        1.33
  YS02001649           JUNCTION     0.22     1.45     7.84     0  01:46        1.41
  YS02001652           JUNCTION     0.13     1.28     7.87     0  01:44        1.22
  YS02001655           JUNCTION     0.08     1.06     7.91     0  01:45        0.97
  YS02001658           JUNCTION     0.06     0.66     7.80     0  01:46        0.65
  YS02001661           JUNCTION     0.10     0.34     7.74     0  01:44        0.33
  YS02001664           JUNCTION     0.04     0.23     8.16     0  01:45        0.23
  YS02001745           JUNCTION     0.04     0.21     7.73     0  01:45        0.21
  YS02001748           JUNCTION     0.05     0.56     7.64     0  01:45        0.49
  YS02001751           JUNCTION     0.06     0.82     7.70     0  01:46        0.81
  YS02001754           JUNCTION     0.10     1.16     7.77     0  01:46        1.02
  YS02001757           JUNCTION     0.25     1.41     7.68     0  01:46        1.36
  YS02001759           JUNCTION     0.20     1.34     7.70     0  01:46        1.28
  YS02001762           JUNCTION     0.19     1.30     7.70     0  01:46        1.24
  YS02001765           JUNCTION     0.17     1.29     7.74     0  01:46        1.19
  YS02001767           JUNCTION     0.17     1.30     7.79     0  01:46        1.15
  YS02001770           JUNCTION     0.18     1.36     7.86     0  01:46        1.16
  YS02001774           JUNCTION     0.23     1.46     7.88     0  01:46        1.23
  YS02001779           JUNCTION     0.08     1.21     7.89     0  01:46        0.98
  YS02001783           JUNCTION     0.21     1.70     7.85     0  01:47        1.46
  YS02001784           JUNCTION     0.23     1.68     7.75     0  01:47        1.40
  YS02001786           JUNCTION     0.20     1.53     7.56     0  01:47        1.25
  YS02001788           JUNCTION     0.15     1.46     7.44     0  01:47        1.12
  YS02001790           JUNCTION     0.19     1.53     7.17     0  01:47        1.29
  YS02001791           JUNCTION     0.15     1.38     6.85     0  01:47        1.27
  YS02001793           JUNCTION     0.16     1.80     6.64     0  01:55        1.80
  YS02001882           JUNCTION     0.24     1.65     8.37     0  01:43        1.60
  YS02001884           JUNCTION     0.31     1.74     8.36     0  01:43        1.70
  YS02001887           JUNCTION     0.38     1.81     8.35     0  01:43        1.78
  YS02001890           JUNCTION     0.41     1.81     8.32     0  01:43        1.80
  YS02001895           JUNCTION     0.22     1.56     8.31     0  01:44        1.55
  YS02001898           JUNCTION     0.22     1.56     8.29     0  01:44        1.55
  YS02001901           JUNCTION     0.31     1.68     8.28     0  01:44        1.66
  YS02001904           JUNCTION     0.29     1.64     8.27     0  01:43        1.63
  YS02001907           JUNCTION     0.57     1.96     8.25     0  01:43        1.96
  YS02001910           JUNCTION     0.39     1.85     8.35     0  01:44        1.81
  YS02001915           JUNCTION     0.24     1.71     8.43     0  01:44        1.65
  YS02001918           JUNCTION     0.12     1.48     8.54     0  01:44        1.34
  YS02001920           JUNCTION     0.20     1.58     8.59     0  01:44        1.42
  YS02001923           JUNCTION     0.09     1.37     8.63     0  01:44        1.19
  YS02001926           JUNCTION     0.13     1.90     9.35     0  01:44        1.00
  YS02001929           JUNCTION     0.06     1.06     8.75     0  01:44        0.75
  YS02006553           JUNCTION     0.57     2.02     8.31     0  01:47        1.96
  YS02006556           JUNCTION     0.55     2.07     8.38     0  01:47        1.91
  YS02006558           JUNCTION     0.59     2.13     8.40     0  01:47        1.95
  YS02006561           JUNCTION     0.13     1.27     7.93     0  01:47        1.08
  YS02163301           JUNCTION     0.35     1.91     8.43     0  01:40        1.83
  YS02163601           JUNCTION     0.43     1.87     8.27     0  01:46        1.84
  YS02164001           JUNCTION     0.37     1.76     8.22     0  01:46        1.73
  YSB1154              JUNCTION     0.34     1.88    10.94     0  01:39        1.82
  YSB1171              JUNCTION     0.48     1.95    10.85     0  01:39        1.95
  YSB1174              JUNCTION     0.30     1.79    10.90     0  01:42        1.75
  YSB6556              JUNCTION     0.25     1.75    10.91     0  01:39        1.70
  CC-1                 OUTFALL      0.00     0.00     0.00     0  00:00        0.00
  CC-2                 OUTFALL      0.00     0.00     0.00     0  00:00        0.00
  JK-1                 OUTFALL      0.00     0.00     0.00     0  00:00        0.00
  JK-2                 OUTFALL      0.00     0.00     0.00     0  00:00        0.00
  WSC                  OUTFALL      0.28     0.50     1.17     0  01:48        0.50
  CC-storage           STORAGE      0.53     1.31     6.81     0  02:20        1.31
  JK-storage           STORAGE      0.72     5.80     6.60     0  01:47        5.80
  XR-storage           STORAGE      7.58     8.66     6.66     0  06:00        8.66
  
  
  *******************
  Node Inflow Summary
  *******************
  
  -------------------------------------------------------------------------------------------------
                                  Maximum  Maximum                  Lateral       Total        Flow
                                  Lateral    Total  Time of Max      Inflow      Inflow     Balance
                                   Inflow   Inflow   Occurrence      Volume      Volume       Error
  Node                 Type           LPS      LPS  days hr:min    10^6 ltr    10^6 ltr     Percent
  -------------------------------------------------------------------------------------------------
  HS02004478           JUNCTION      0.00  2168.38     0  01:45           0        7.27      -0.021
  HS02004479           JUNCTION      0.00   386.85     0  01:40           0       0.826       0.096
  HS02004480           JUNCTION      0.00  2108.31     0  01:40           0        5.87       0.028
  HS02004770           JUNCTION    724.12   776.83     0  01:39        1.73           2       0.142
  HS02004777           JUNCTION      0.03   793.27     0  01:39    0.000648        1.84       0.292
  HS02004785           JUNCTION      0.15   799.75     0  01:39     0.00324        1.84       0.040
  HS02004788           JUNCTION    271.11   838.33     0  01:53       0.679        2.52      -0.004
  HS02004792           JUNCTION    868.00  1577.46     0  01:40        2.22        4.73       0.007
  HS02004799           JUNCTION    180.61  1744.76     0  01:40       0.389        5.06       0.057
  HS02004802           JUNCTION      0.00   359.03     0  01:45           0        1.44       0.268
  HS02004807           JUNCTION    224.32   468.88     0  01:40       0.476         1.5       0.280
  HS02004817           JUNCTION      0.60   469.90     0  01:40       0.013         1.1       1.506
  HS02004824           JUNCTION    283.70   681.24     0  01:40       0.836        1.38       0.048
  HS02004830           JUNCTION      0.15   695.19     0  01:40     0.00324       0.838       0.162
  HS02004837           JUNCTION    212.38   862.15     0  01:40       0.589        1.12       0.078
  HS02004842           JUNCTION      0.00   830.53     0  01:40           0       0.809       1.646
  HS02004848           JUNCTION    253.08  1034.78     0  01:40       0.782        1.43       0.002
  HS02004852           JUNCTION      0.00   981.19     0  01:42           0        1.28      -0.013
  HS02004856           JUNCTION     91.60  1059.94     0  01:42       0.196        1.47       0.125
  HS02004862           JUNCTION    118.54  1143.81     0  01:42       0.334         1.8       0.030
  HS02004870           JUNCTION    122.23  1237.81     0  01:42       0.261        2.06       0.008
  HS02004876           JUNCTION    120.69  1217.94     0  01:43       0.269        2.33       0.050
  HS02004881           JUNCTION     65.59  1289.21     0  01:43       0.138        2.47       0.020
  HS02004901           JUNCTION    174.83   407.56     0  01:47        0.39       0.501       0.348
  WS02001211           JUNCTION      7.35   210.43     0  01:43       0.159        4.02       0.829
  WS02001212           JUNCTION      0.00   210.92     0  01:44           0        3.99       0.369
  WS02001213           JUNCTION      0.00   253.29     0  01:43           0        3.97       0.476
  WS02003059           JUNCTION      0.00   252.38     0  01:37           0        3.97       0.820
  WS02003060           JUNCTION     16.53  1472.18     0  01:45       0.357        13.3       0.117
  WS02003066           JUNCTION      0.00  1241.07     0  01:45           0        8.98       0.022
  WS02003067           JUNCTION      0.00  1238.98     0  01:45           0        8.98       0.054
  WS02003069           JUNCTION      0.32  1458.90     0  01:46     0.00691        13.2       0.126
  WS02003072           JUNCTION      0.00  1454.84     0  01:46           0        13.2       0.168
  WS02003073           JUNCTION      1.82  1456.79     0  01:47      0.0393        13.2       0.175
  WS02004138           JUNCTION      0.00   190.00     0  00:29           0        3.88       0.072
  WS02004139           JUNCTION      0.32   190.32     0  00:33     0.00693        3.89       0.689
  WS02004401           JUNCTION      0.00  1239.99     0  01:44           0         9.1       0.121
  WS02004402           JUNCTION      0.00  1239.61     0  01:44           0        9.09       0.125
  WS02004403           JUNCTION      0.00  1239.45     0  01:44           0        9.08       0.118
  WS02004404           JUNCTION      0.16  1239.68     0  01:44      0.0035        9.07       0.113
  WS02004405           JUNCTION      0.04  1241.43     0  01:44    0.000823        9.06       0.133
  WS02004406           JUNCTION      0.00  1240.79     0  01:44           0        9.05       0.246
  WS02004407           JUNCTION      0.00  1240.25     0  01:44           0        9.03       0.021
  WS02004409           JUNCTION      0.00  1239.26     0  01:45           0        9.03       0.046
  WS02004410           JUNCTION      0.00  1239.98     0  01:45           0        9.02       0.066
  WS02004411           JUNCTION      0.00  1239.63     0  01:45           0        9.02       0.080
  WS02004412           JUNCTION      0.00  1240.16     0  01:45           0        9.01       0.101
  WS02004413           JUNCTION      0.00  1239.30     0  01:45           0           9       0.175
  WS02006109           JUNCTION      1.23  1221.97     0  01:44      0.0266        8.88       0.087
  WS02006110           JUNCTION      0.00  1118.03     0  01:52           0        8.82       0.086
  WS02006111           JUNCTION      0.00  1117.87     0  01:52           0        8.81       0.007
  WS02006112           JUNCTION    142.98  1239.45     0  01:44        0.32        9.13       0.248
  WS02006113           JUNCTION      0.00  1118.10     0  01:52           0        8.81       0.032
  WS02006115           JUNCTION      0.00  1239.53     0  01:45           0        9.11       0.085
  WS02006116           JUNCTION      0.00  1239.48     0  01:45           0         9.1      -0.013
  WS02006228           JUNCTION      0.00  1221.18     0  01:44           0        8.85       0.028
  WS02006229           JUNCTION      0.00  2171.14     0  01:44           0        10.5       0.085
  WS02006230           JUNCTION     10.28   959.40     0  01:44       0.222        4.85       0.116
  WS02006231           JUNCTION      0.00   529.96     0  03:50           0        4.13       0.015
  WS02006232           JUNCTION      0.00   526.37     0  03:50           0        4.14       0.205
  WS02006234           JUNCTION      0.00   520.00     0  00:10           0        4.13      -0.135
  WS02006235           JUNCTION      0.00   539.13     0  00:10           0        4.13       0.169
  WS02006238           JUNCTION      0.00   415.96     0  02:02           0        3.79      -0.420
  WS02006239           JUNCTION      0.00   415.10     0  02:05           0        3.77      -0.352
  WS02006240           JUNCTION      0.00   423.47     0  01:31           0        3.77      -0.033
  WS02006242           JUNCTION      0.00   431.43     0  01:30           0        3.78       0.049
  WS02006243           JUNCTION      0.00   445.72     0  01:30           0        3.45      -0.283
  WS02006245           JUNCTION      0.00   457.98     0  01:31           0        3.47       0.427
  WS02006247           JUNCTION      0.00   461.89     0  01:30           0        3.47       0.058
  WS02006248           JUNCTION      0.00   477.33     0  01:30           0        3.68      -0.005
  WS02006249           JUNCTION      0.00  1335.70     0  01:43           0        5.39       0.179
  WS02006251           JUNCTION      0.08  1344.00     0  01:50     0.00166        5.45      -0.007
  WS02006252           JUNCTION      0.00   400.00     0  00:00           0        2.99      -0.104
  WS02006253           JUNCTION     17.49  1311.64     0  01:43      0.0334        2.56       0.076
  WS02006256           JUNCTION      0.00   300.00     0  00:10           0           1      -0.002
  WS02006280           JUNCTION      0.00  2169.09     0  01:44           0        7.25       0.014
  WS02006284           JUNCTION      0.10  2168.64     0  01:44     0.00207        7.25      -0.025
  WS02006287           JUNCTION      0.00  2168.77     0  01:44           0        7.24       0.011
  WSF200               JUNCTION      0.00  1241.09     0  01:44           0        8.98       0.010
  YS02001580           JUNCTION      0.00   130.07     0  01:39           0     0.00427      -2.776
  YS02001583           JUNCTION      0.00   204.98     0  01:40           0      0.0148      -7.670
  YS02001586           JUNCTION    326.66   326.82     0  01:45        1.07        1.09       0.170
  YS02001590           JUNCTION      0.00   317.88     0  01:48           0        1.07      -0.021
  YS02001593           JUNCTION      0.00   318.01     0  01:46           0        1.07       0.006
  YS02001596           JUNCTION      0.00   318.00     0  01:46           0        1.07       0.002
  YS02001600           JUNCTION      0.00   318.01     0  01:47           0        1.07       0.002
  YS02001601           JUNCTION    621.46   938.55     0  01:45        1.53         2.6       0.042
  YS02001602           JUNCTION      0.00   572.48     0  01:39           0        2.11       0.035
  YS02001605           JUNCTION      0.00   572.49     0  01:39           0        2.07       0.038
  YS02001607           JUNCTION      0.00   572.11     0  01:39           0        2.07       0.120
  YS02001610           JUNCTION      0.00   543.07     0  01:40           0        2.07       0.135
  YS02001613           JUNCTION      0.00   546.39     0  01:40           0        2.03       0.106
  YS02001616           JUNCTION      0.00   548.23     0  01:40           0        2.03       0.038
  YS02001619           JUNCTION    571.27   938.59     0  01:40        1.71        3.73       0.005
  YS02001622           JUNCTION      0.00   936.69     0  01:40           0        3.73       0.005
  YS02001625           JUNCTION      0.00   936.94     0  01:40           0        3.73       0.275
  YS02001629           JUNCTION      0.00   938.37     0  01:40           0         3.7      -0.000
  YS02001633           JUNCTION    458.08  1330.94     0  01:42        1.11         4.8       0.081
  YS02001641           JUNCTION      0.00  1332.21     0  01:42           0         4.8       0.069
  YS02001644           JUNCTION    408.47  1717.46     0  01:42       0.957        5.75       0.066
  YS02001647           JUNCTION      0.00  1717.49     0  01:42           0        5.74       0.008
  YS02001649           JUNCTION      0.00  2042.19     0  01:41           0         6.6       0.010
  YS02001652           JUNCTION      0.00   478.54     0  01:50           0        0.86      -0.284
  YS02001655           JUNCTION      0.15   572.95     0  01:47     0.00332        0.86       0.005
  YS02001658           JUNCTION      0.00   388.13     0  01:44           0       0.857       0.009
  YS02001661           JUNCTION      0.00   380.44     0  01:45           0       0.857       0.038
  YS02001664           JUNCTION    380.76   380.76     0  01:45       0.857       0.857      -0.001
  YS02001745           JUNCTION    251.83   251.83     0  01:45       0.531       0.531       0.083
  YS02001748           JUNCTION      0.04   251.70     0  01:45    0.000972       0.532      -0.068
  YS02001751           JUNCTION      0.01   401.67     0  01:45    0.000238       0.533       0.235
  YS02001754           JUNCTION      0.26   436.80     0  01:46     0.00562       0.538      -0.368
  YS02001757           JUNCTION      0.00  2949.24     0  01:47           0        9.01       0.015
  YS02001759           JUNCTION    345.10   882.85     0  01:44        0.73        1.88      -0.007
  YS02001762           JUNCTION      0.00   538.46     0  01:44           0        1.15       0.008
  YS02001765           JUNCTION      0.00   539.28     0  01:45           0        1.14       0.017
  YS02001767           JUNCTION      0.54   541.93     0  01:45      0.0116        1.14       0.007
  YS02001770           JUNCTION    506.72   545.85     0  01:45        1.12        1.17      -0.011
  YS02001774           JUNCTION      0.00   117.94     0  01:44           0      0.0716       1.682
  YS02001779           JUNCTION      0.01   121.82     0  01:44    0.000108      0.0222      -0.109
  YS02001783           JUNCTION      0.00  1145.83     0  01:44           0        3.33       0.008
  YS02001784           JUNCTION      1.06  1146.80     0  01:44      0.0229        3.36       0.019
  YS02001786           JUNCTION      0.06  1146.74     0  01:44     0.00122        3.36       0.020
  YS02001788           JUNCTION      0.07  1148.62     0  01:47     0.00153        3.36       0.002
  YS02001790           JUNCTION      0.15  1160.81     0  01:44     0.00335        3.36       0.013
  YS02001791           JUNCTION      0.00  1258.81     0  01:45           0        3.36      -0.010
  YS02001793           JUNCTION      0.00  1307.21     0  02:11           0        3.36      -0.025
  YS02001882           JUNCTION      0.00    65.94     0  01:40           0      0.0129       5.563
  YS02001884           JUNCTION      0.00    94.11     0  01:40           0      0.0488       5.378
  YS02001887           JUNCTION    376.31   389.15     0  01:41       0.773       0.806       0.561
  YS02001890           JUNCTION      0.00   392.49     0  01:41           0       0.765       0.679
  YS02001895           JUNCTION      0.00   395.19     0  01:41           0        0.76       0.248
  YS02001898           JUNCTION      0.00   401.69     0  01:41           0       0.758       0.017
  YS02001901           JUNCTION      0.00   412.18     0  01:41           0       0.761       0.439
  YS02001904           JUNCTION      0.00   414.58     0  01:41           0       0.767       0.362
  YS02001907           JUNCTION      0.00  1247.03     0  01:45           0        2.45       0.723
  YS02001910           JUNCTION      0.00   872.51     0  01:45           0        1.69       0.432
  YS02001915           JUNCTION    448.67   871.43     0  01:45        1.07        1.72       0.090
  YS02001918           JUNCTION      0.00   424.12     0  01:45           0       0.674       0.019
  YS02001920           JUNCTION      2.87   423.22     0  01:45       0.062       0.657       0.130
  YS02001923           JUNCTION      0.04   368.97     0  01:43    0.000814       0.584      -0.106
  YS02001926           JUNCTION      0.05   491.13     0  01:44     0.00113        0.57       0.080
  YS02001929           JUNCTION    214.52   223.72     0  01:43       0.561       0.562      -0.020
  YS02006553           JUNCTION      0.00   689.28     0  01:47           0        2.26       0.519
  YS02006556           JUNCTION      0.00   689.45     0  01:47           0        2.27       0.347
  YS02006558           JUNCTION    510.12  1146.94     0  01:44        1.12        3.37       0.106
  YS02006561           JUNCTION      0.00  1145.55     0  01:44           0        3.33       0.002
  YS02163301           JUNCTION      0.00   914.58     0  01:55           0         3.7       0.051
  YS02163601           JUNCTION      0.11  1331.25     0  01:42     0.00238         4.8       0.112
  YS02164001           JUNCTION      0.00  1331.44     0  01:42           0         4.8       0.054
  YSB1154              JUNCTION    209.47   209.47     0  01:45       0.465       0.466       0.314
  YSB1171              JUNCTION      0.00   382.11     0  01:44           0       0.826       0.748
  YSB1174              JUNCTION    174.39   174.39     0  01:40       0.353       0.353       0.357
  YSB6556              JUNCTION      0.00   209.69     0  01:45           0       0.467       0.236
  CC-1                 OUTFALL       0.00   683.00     0  00:10           0        6.71       0.000
  CC-2                 OUTFALL       0.00   683.00     0  00:40           0        2.28       0.000
  JK-1                 OUTFALL       0.00  1000.00     0  02:10           0        1.25       0.000
  JK-2                 OUTFALL       0.00  1000.00     0  02:10           0        1.16       0.000
  WSC                  OUTFALL       0.00  1456.61     0  01:48           0        13.2       0.000
  CC-storage           STORAGE       0.00  2950.95     0  01:47           0        11.2      -6.232
  JK-storage           STORAGE       0.00  1670.52     0  02:11           0        3.51     -20.312
  XR-storage           STORAGE     200.00   200.00     0  00:00        4.32        4.92       0.001
  
  
  **********************
  Node Surcharge Summary
  **********************
  
  Surcharging occurs when water rises above the top of the highest conduit.
  ---------------------------------------------------------------------
                                               Max. Height   Min. Depth
                                   Hours       Above Crown    Below Rim
  Node                 Type      Surcharged         Meters       Meters
  ---------------------------------------------------------------------
  HS02004478           JUNCTION        0.29          0.685        0.255
  HS02004479           JUNCTION        0.44          0.934        0.116
  HS02004480           JUNCTION        0.48          1.005        0.095
  HS02004770           JUNCTION        0.39          0.720        0.000
  HS02004777           JUNCTION        0.39          0.780        0.000
  HS02004785           JUNCTION        0.33          0.790        0.000
  HS02004788           JUNCTION        0.31          0.720        0.000
  HS02004792           JUNCTION        0.45          0.900        0.000
  HS02004799           JUNCTION        0.56          1.060        0.000
  HS02004802           JUNCTION        0.48          1.103        0.107
  HS02004807           JUNCTION        0.47          1.220        0.000
  HS02004817           JUNCTION        1.10          1.740        0.000
  HS02004824           JUNCTION        0.31          1.310        0.000
  HS02004830           JUNCTION        0.27          1.330        0.000
  HS02004837           JUNCTION        0.22          1.300        0.040
  HS02004842           JUNCTION        0.39          1.520        0.000
  HS02004848           JUNCTION        0.15          1.274        0.096
  HS02004852           JUNCTION        0.20          1.280        0.140
  HS02004856           JUNCTION        0.15          1.235        0.065
  HS02004862           JUNCTION        0.23          1.273        0.027
  HS02004870           JUNCTION        0.24          1.244        0.156
  HS02004876           JUNCTION        0.29          1.310        0.250
  HS02004881           JUNCTION        0.26          1.067        0.383
  HS02004901           JUNCTION        0.39          0.720        0.000
  WS02004401           JUNCTION        1.54          0.787        0.873
  WS02004402           JUNCTION        1.58          0.750        0.990
  WS02004403           JUNCTION        1.60          0.678        1.352
  WS02004404           JUNCTION        1.69          0.687        2.093
  WS02004405           JUNCTION        1.68          0.621        2.179
  WS02004406           JUNCTION        1.67          0.517        1.933
  WS02004409           JUNCTION        0.79          0.316        2.044
  WS02004410           JUNCTION        0.76          0.238        2.302
  WS02004411           JUNCTION        0.72          0.161        2.369
  WS02004412           JUNCTION        0.60          0.073        2.237
  WS02004413           JUNCTION        1.13          0.126        2.074
  WS02006109           JUNCTION        2.40          1.820        0.000
  WS02006110           JUNCTION        1.73          1.433        0.417
  WS02006111           JUNCTION        1.12          0.850        1.020
  WS02006112           JUNCTION        1.89          1.282        0.398
  WS02006113           JUNCTION        1.13          0.934        0.996
  WS02006115           JUNCTION        1.34          0.874        1.376
  WS02006116           JUNCTION        1.38          0.825        1.465
  WS02006228           JUNCTION        2.39          2.200        0.000
  WS02006229           JUNCTION        0.76          1.055        0.015
  WS02006230           JUNCTION        1.66          1.570        0.000
  WS02006231           JUNCTION        1.68          1.479        0.051
  WS02006232           JUNCTION        2.34          1.480        0.000
  WS02006234           JUNCTION        2.18          1.240        0.000
  WS02006235           JUNCTION        2.25          1.290        0.000
  WS02006238           JUNCTION        2.28          1.311        0.119
  WS02006239           JUNCTION        2.16          1.150        0.140
  WS02006240           JUNCTION        2.08          1.247        0.143
  WS02006242           JUNCTION        2.20          0.820        0.000
  WS02006243           JUNCTION        1.83          0.770        0.000
  WS02006245           JUNCTION        1.79          0.850        0.000
  WS02006247           JUNCTION        1.80          0.760        0.000
  WS02006248           JUNCTION        1.70          0.380        0.000
  WS02006249           JUNCTION        1.74          0.390        0.000
  WS02006251           JUNCTION        1.34          1.180        0.000
  WS02006252           JUNCTION        2.31          1.100        0.000
  WS02006253           JUNCTION        1.37          1.924        0.556
  WS02006256           JUNCTION        5.91          2.050        0.000
  WS02006280           JUNCTION        0.59          0.706        0.074
  WS02006284           JUNCTION        0.50          0.687        0.113
  WS02006287           JUNCTION        0.40          0.764        0.126
  YS02001580           JUNCTION        0.35          0.450        0.000
  YS02001583           JUNCTION        0.36          0.472        0.028
  YS02001586           JUNCTION        0.52          0.510        0.000
  YS02001590           JUNCTION        0.61          0.750        0.000
  YS02001593           JUNCTION        0.61          0.729        0.111
  YS02001596           JUNCTION        0.72          0.964        0.106
  YS02001600           JUNCTION        0.88          1.190        0.000
  YS02001601           JUNCTION        1.36          1.440        0.000
  YS02001602           JUNCTION        1.19          1.270        0.000
  YS02001605           JUNCTION        1.11          1.180        0.000
  YS02001607           JUNCTION        0.53          0.645        0.035
  YS02001610           JUNCTION        0.56          0.680        0.000
  YS02001613           JUNCTION        0.52          0.672        0.028
  YS02001616           JUNCTION        0.46          0.610        0.000
  YS02001619           JUNCTION        0.45          0.592        0.018
  YS02001622           JUNCTION        0.44          0.620        0.000
  YS02001625           JUNCTION        0.66          0.780        0.000
  YS02001629           JUNCTION        0.31          0.470        0.000
  YS02001633           JUNCTION        0.67          0.883        0.177
  YS02001641           JUNCTION        0.55          0.735        0.365
  YS02001644           JUNCTION        0.48          0.680        0.240
  YS02001647           JUNCTION        0.17          0.364        0.536
  YS02001649           JUNCTION        0.23          0.453        0.597
  YS02001652           JUNCTION        0.09          0.248        0.882
  YS02001655           JUNCTION        0.01          0.065        1.135
  YS02001754           JUNCTION        0.01          0.108        1.042
  YS02001757           JUNCTION        0.20          0.414        0.796
  YS02001759           JUNCTION        0.15          0.338        0.872
  YS02001762           JUNCTION        0.13          0.303        0.847
  YS02001765           JUNCTION        0.11          0.292        0.808
  YS02001767           JUNCTION        0.10          0.302        0.728
  YS02001770           JUNCTION        0.08          0.332        0.588
  YS02001774           JUNCTION        0.14          0.455        0.595
  YS02001779           JUNCTION        0.01          0.208        0.472
  YS02001783           JUNCTION        0.51          0.904        0.696
  YS02001784           JUNCTION        0.50          0.883        0.607
  YS02001786           JUNCTION        0.46          0.726        0.704
  YS02001788           JUNCTION        0.39          0.660        0.820
  YS02001790           JUNCTION        0.40          0.728        0.429
  YS02001791           JUNCTION        0.40          0.579        1.341
  YS02001793           JUNCTION        0.46          0.804        1.796
  YS02001882           JUNCTION        0.41          0.650        0.180
  YS02001884           JUNCTION        0.42          0.684        0.186
  YS02001887           JUNCTION        0.46          0.759        0.191
  YS02001890           JUNCTION        0.48          0.760        0.000
  YS02001895           JUNCTION        0.40          0.560        0.190
  YS02001898           JUNCTION        0.39          0.526        0.214
  YS02001901           JUNCTION        0.45          0.676        0.194
  YS02001904           JUNCTION        0.44          0.635        0.215
  YS02001907           JUNCTION        0.63          0.950        0.000
  YS02001910           JUNCTION        0.50          0.848        0.252
  YS02001915           JUNCTION        0.41          0.711        0.289
  YS02001918           JUNCTION        0.29          0.477        0.333
  YS02001920           JUNCTION        0.30          0.579        0.561
  YS02001923           JUNCTION        0.01          0.156        0.664
  YS02001926           JUNCTION        0.01          0.900        0.000
  YS02001929           JUNCTION        0.01          0.061        0.719
  YS02006553           JUNCTION        0.65          1.024        0.166
  YS02006556           JUNCTION        0.57          1.028        0.322
  YS02006558           JUNCTION        0.56          1.034        0.366
  YS02006561           JUNCTION        0.32          0.473        0.677
  YS02163301           JUNCTION        0.65          0.908        0.122
  YS02163601           JUNCTION        0.70          0.871        0.209
  YS02164001           JUNCTION        0.57          0.762        0.338
  YSB1154              JUNCTION        0.70          1.184        0.216
  YSB1171              JUNCTION        0.70          1.100        0.000
  YSB1174              JUNCTION        0.60          1.093        0.157
  YSB6556              JUNCTION        0.53          1.046        0.054
  
  
  *********************
  Node Flooding Summary
  *********************
  
  Flooding refers to all water that overflows a node, whether it ponds or not.
  --------------------------------------------------------------------------
                                                             Total   Maximum
                                 Maximum   Time of Max       Flood    Ponded
                        Hours       Rate    Occurrence      Volume     Depth
  Node                 Flooded       LPS   days hr:min    10^6 ltr    Meters
  --------------------------------------------------------------------------
  HS02004770              0.13    198.02      0  01:40       0.051     0.000
  HS02004777              0.01     63.38      0  01:39       0.001     0.000
  HS02004785              0.01     89.96      0  01:39       0.000     0.000
  HS02004788              0.01    243.70      0  01:39       0.001     0.000
  HS02004792              0.11    278.41      0  01:44       0.058     0.000
  HS02004799              0.01     59.53      0  01:43       0.001     0.000
  HS02004807              0.01     23.95      0  01:42       0.000     0.000
  HS02004817              0.01      9.36      0  01:42       0.000     0.000
  HS02004824              0.01     20.09      0  01:42       0.000     0.000
  HS02004830              0.01     23.80      0  01:42       0.000     0.000
  HS02004842              0.01     81.35      0  01:42       0.001     0.000
  HS02004901              0.23    407.53      0  01:47       0.226     0.000
  WS02006109              0.20    125.53      0  01:44       0.051     0.000
  WS02006228              0.01      1.13      0  01:42       0.000     0.000
  WS02006230              0.51    506.70      0  01:44       0.537     0.000
  WS02006232              0.12      0.80      0  01:58       0.000     0.000
  WS02006234              0.60    128.68      0  01:49       0.205     0.000
  WS02006235              0.01      7.15      0  02:20       0.000     0.000
  WS02006242              0.74    137.20      0  02:03       0.312     0.000
  WS02006243              0.01     68.88      0  03:02       0.000     0.000
  WS02006245              0.01     82.22      0  01:31       0.000     0.000
  WS02006247              0.01     56.98      0  03:02       0.000     0.000
  WS02006248              0.96    346.11      0  01:39       0.980     0.000
  WS02006249              1.21   1272.20      0  01:43       2.480     0.000
  WS02006251              0.01     54.89      0  01:42       0.000     0.000
  WS02006252              0.13    383.47      0  01:43       0.098     0.000
  WS02006256              0.79    280.31      0  02:00       0.485     0.000
  YS02001580              0.01     80.46      0  01:40       0.000     0.000
  YS02001586              0.12    109.42      0  01:40       0.004     0.000
  YS02001590              0.01      2.81      0  01:40       0.000     0.000
  YS02001600              0.01      2.64      0  01:40       0.000     0.000
  YS02001601              0.44    540.70      0  01:45       0.493     0.000
  YS02001602              0.22     61.96      0  01:48       0.037     0.000
  YS02001605              0.01      2.97      0  01:40       0.000     0.000
  YS02001610              0.14    109.22      0  01:48       0.039     0.000
  YS02001616              0.01      4.27      0  01:40       0.000     0.000
  YS02001622              0.01    145.55      0  01:40       0.000     0.000
  YS02001625              0.11    131.96      0  01:46       0.022     0.000
  YS02001629              0.01    229.34      0  01:40       0.001     0.000
  YS02001890              0.01      5.73      0  01:43       0.000     0.000
  YS02001907              0.21    609.91      0  01:45       0.183     0.000
  YS02001926              0.01    346.65      0  01:44       0.000     0.000
  YSB1171                 0.01     79.78      0  01:43       0.001     0.000
  JK-storage              0.38    965.32      0  01:50       0.997     0.000
  
  
  **********************
  Storage Volume Summary
  **********************
  
  --------------------------------------------------------------------------------------------------
                         Average     Avg  Evap Exfil       Maximum     Max    Time of Max    Maximum
                          Volume    Pcnt  Pcnt  Pcnt        Volume    Pcnt     Occurrence    Outflow
  Storage Unit           1000 m3    Full  Loss  Loss       1000 m3    Full    days hr:min        LPS
  --------------------------------------------------------------------------------------------------
  CC-storage               1.470      23     0     0         3.664      57       0  02:20    1766.00
  JK-storage               0.036      12     0     0         0.291     100       0  01:47    2300.00
  XR-storage               0.910      63     0     0         1.039      72       0  06:00     190.00
  
  
  ***********************
  Outfall Loading Summary
  ***********************
  
  -----------------------------------------------------------
                         Flow       Avg       Max       Total
                         Freq      Flow      Flow      Volume
  Outfall Node           Pcnt       LPS       LPS    10^6 ltr
  -----------------------------------------------------------
  CC-1                  73.71    518.10    683.00       6.715
  CC-2                  27.26    372.11    683.00       2.279
  JK-1                  60.69    103.53   1000.00       1.246
  JK-2                  33.64    177.14   1000.00       1.163
  WSC                   99.97    579.09   1456.61      13.220
  -----------------------------------------------------------
  System                59.05   1749.97   4056.86      24.622
  
  
  ********************
  Link Flow Summary
  ********************
  
  -----------------------------------------------------------------------------
                                 Maximum  Time of Max   Maximum    Max/    Max/
                                  |Flow|   Occurrence   |Veloc|    Full    Full
  Link                 Type          LPS  days hr:min     m/sec    Flow   Depth
  -----------------------------------------------------------------------------
  1                    CONDUIT   1456.61     0  01:48      3.67    0.51    0.50
  HS02004478WS02006287 CONDUIT   2168.77     0  01:44      2.57    0.61    1.00
  HS02004479HS02004480 CONDUIT    397.34     0  01:40      0.57    0.38    1.00
  HS02004480HS02004478 CONDUIT   2108.74     0  01:40      3.01    8.88    1.00
  HS02004770HS02004777 CONDUIT    793.24     0  01:39      1.13    1.45    1.00
  HS02004777HS02004785 CONDUIT    799.60     0  01:39      1.19    0.98    1.00
  HS02004785HS02004788 CONDUIT    640.57     0  01:53      1.35    4.83    1.00
  HS02004788HS02004792 CONDUIT    838.51     0  01:53      1.45    0.55    1.00
  HS02004792HS02004799 CONDUIT   1576.41     0  01:40      2.25    0.97    1.00
  HS02004799HS02004480 CONDUIT   1742.86     0  01:40      2.49    2.20    1.00
  HS02004802HS02004478 CONDUIT    358.95     0  01:45      0.65    0.32    1.00
  HS02004807HS02004802 CONDUIT    359.03     0  01:45      0.59    0.69    1.00
  HS02004817HS02004807 CONDUIT    469.30     0  01:40      0.67    0.28    1.00
  HS02004817HS02004824 CONDUIT    468.65     0  01:40      0.67    0.21    1.00
  HS02004824HS02004830 CONDUIT    695.04     0  01:40      1.03    0.91    1.00
  HS02004830HS02004837 CONDUIT    668.17     0  01:40      1.03    0.67    1.00
  HS02004837HS02004842 CONDUIT    830.53     0  01:40      1.19    0.50    1.00
  HS02004842HS02004848 CONDUIT    830.12     0  01:40      1.31    0.48    1.00
  HS02004848HS02004852 CONDUIT    981.19     0  01:42      1.59    1.11    1.00
  HS02004852HS02004856 CONDUIT    970.85     0  01:42      1.44    1.11    1.00
  HS02004856HS02004862 CONDUIT   1036.12     0  01:42      1.67    1.03    1.00
  HS02004862HS02004870 CONDUIT   1119.02     0  01:42      1.88    1.21    1.00
  HS02004870HS02004876 CONDUIT   1101.75     0  01:43      1.76    0.73    1.00
  HS02004876HS02004881 CONDUIT   1224.12     0  01:43      2.62   13.02    1.00
  HS02004881HS02006253 CONDUIT   1295.30     0  01:43      2.35    0.25    1.00
  HS02004901HS02004770 CONDUIT    254.61     0  01:47      0.36    0.96    1.00
  WS02001211WS02001212 CONDUIT    210.92     0  01:44      0.54    0.16    0.68
  WS02001212WS02001213 CONDUIT    253.29     0  01:43      1.04    0.39    0.55
  WS02001213WS02003059 CONDUIT    226.25     0  01:45      0.46    0.37    0.88
  WS02003059WS02003060 CONDUIT    232.21     0  03:18      0.64    0.15    0.80
  WS02003060WS02003069 CONDUIT   1458.58     0  01:46      2.07    0.57    0.60
  WS02003066WSF200     CONDUIT   1241.09     0  01:44      3.39    0.21    0.37
  WS02003067WS02003066 CONDUIT   1241.07     0  01:45      1.96    0.40    0.55
  WS02003069WS02003072 CONDUIT   1454.84     0  01:46      1.87    0.70    0.65
  WS02003072WS02003073 CONDUIT   1454.97     0  01:47      2.03    3.14    0.61
  WS02004138WS02004139 CONDUIT    190.00     0  00:33      2.17    0.04    0.41
  WS02004139WS02001211 CONDUIT    203.08     0  01:43      0.55    0.26    0.59
  WS02004401WS02004402 CONDUIT   1239.61     0  01:44      1.58    1.49    1.00
  WS02004402WS02004403 CONDUIT   1239.45     0  01:44      1.58    1.78    1.00
  WS02004403WS02004404 CONDUIT   1239.52     0  01:44      1.58    0.90    1.00
  WS02004404WS02004405 CONDUIT   1241.39     0  01:44      1.60   12.16    1.00
  WS02004405WS02004406 CONDUIT   1240.79     0  01:44      1.58    2.45    1.00
  WS02004406WS02004407 CONDUIT   1240.25     0  01:44      1.84    0.55    0.91
  WS02004407WS02004409 CONDUIT   1239.26     0  01:45      2.02    0.44    0.91
  WS02004409WS02004410 CONDUIT   1239.98     0  01:45      1.58    1.60    1.00
  WS02004410WS02004411 CONDUIT   1239.63     0  01:45      1.58    1.69    1.00
  WS02004411WS02004412 CONDUIT   1240.16     0  01:45      1.58    1.76    1.00
  WS02004412WS02004413 CONDUIT   1239.30     0  01:45      1.58    0.83    1.00
  WS02004413WS02003067 CONDUIT   1238.98     0  01:45      1.94    0.53    0.76
  WS02006109WS02006110 CONDUIT   1118.03     0  01:52      2.22    2.15    1.00
  WS02006110WS02006113 CONDUIT   1118.10     0  01:52      2.22    1.02    1.00
  WS02006111WS02006112 CONDUIT   1118.26     0  01:52      2.22    0.53    1.00
  WS02006112WS02006115 CONDUIT   1239.53     0  01:45      1.58    0.73    1.00
  WS02006113WS02006111 CONDUIT   1117.87     0  01:52      2.76    1.34    1.00
  WS02006115WS02006116 CONDUIT   1239.48     0  01:45      1.58    1.59    1.00
  WS02006116WS02004401 CONDUIT   1239.99     0  01:44      1.58    1.71    1.00
  WS02006228WS02006109 CONDUIT   1220.74     0  01:44      2.43    5.33    1.00
  WS02006229WS02006228 CONDUIT   1221.18     0  01:44      2.43    4.04    1.00
  WS02006230WS02006229 CONDUIT    949.12     0  01:44      2.47   21.12    1.00
  WS02006231WS02006230 CONDUIT    497.91     0  03:50      1.55    7.55    1.00
  WS02006232WS02006231 CONDUIT    529.96     0  03:50      1.41    1.11    1.00
  WS02006234WS02006232 CONDUIT    526.37     0  03:50      1.55    1.06    1.00
  WS02006235WS02006234 CONDUIT    520.00     0  00:10      1.37    5.49    1.00
  WS02006238WS02006235 CONDUIT    419.87     0  03:50      1.60    0.94    1.00
  WS02006239WS02006238 CONDUIT    415.10     0  02:05      1.25    1.33    1.00
  WS02006240WS02006239 CONDUIT    414.79     0  02:03      1.31    1.31    1.00
  WS02006242WS02006240 CONDUIT    423.47     0  01:31      1.15    1.68    1.00
  WS02006243WS02006242 CONDUIT    431.43     0  01:30      1.39    0.92    1.00
  WS02006245WS02006243 CONDUIT    445.72     0  01:30      1.39    1.32    1.00
  WS02006247WS02006245 CONDUIT    457.98     0  01:31      1.38    3.63    1.00
  WS02006248WS02006247 CONDUIT    461.89     0  01:30      1.42    1.01    1.00
  WS02006249WS02006248 CONDUIT    477.33     0  01:30      1.41    2.61    1.00
  WS02006251WS02006249 CONDUIT   1335.70     0  01:43      3.47    3.85    1.00
  WS02006252WS02006251 CONDUIT    407.85     0  01:31     20.23    1.50    1.00
  WS02006253WS02006251 CONDUIT   1315.91     0  01:43      3.42    3.95    1.00
  WS02006256WS02006235 CONDUIT    232.40     0  00:10      3.29    2.46    1.00
  WS02006280WS02006229 CONDUIT   2171.14     0  01:44      4.12    0.46    1.00
  WS02006284WS02006280 CONDUIT   2169.09     0  01:44      3.00    0.91    1.00
  WS02006287WS02006284 CONDUIT   2168.54     0  01:44      2.76    1.00    1.00
  WSF200WS02003060     CONDUIT   1243.09     0  01:43      2.62    0.28    0.49
  YS02001580YS02001583 CONDUIT    130.07     0  01:39      0.81    0.50    1.00
  YS02001583YS02001586 CONDUIT    174.23     0  01:40      0.78    0.26    1.00
  YS02001586YS02001590 CONDUIT    317.88     0  01:48      1.30    0.56    1.00
  YS02001590YS02001593 CONDUIT    318.01     0  01:46      1.12    2.00    1.00
  YS02001593YS02001596 CONDUIT    318.00     0  01:46      1.71    0.50    1.00
  YS02001596YS02001600 CONDUIT    318.01     0  01:47      1.18    0.62    1.00
  YS02001600YS02001601 CONDUIT    317.95     0  01:48      1.12    0.55    1.00
  YS02001601YS02001602 CONDUIT    572.48     0  01:39      2.02    2.07    1.00
  YS02001602YS02001605 CONDUIT    572.49     0  01:39      2.02   12.11    1.00
  YS02001605YS02001607 CONDUIT    572.11     0  01:39      2.02    3.14    1.00
  YS02001607YS02001610 CONDUIT    543.07     0  01:40      0.72    0.52    1.00
  YS02001610YS02001613 CONDUIT    546.39     0  01:40      0.70    0.63    1.00
  YS02001613YS02001616 CONDUIT    548.23     0  01:40      0.70    0.47    1.00
  YS02001616YS02001619 CONDUIT    514.03     0  02:05      0.67    0.89    1.00
  YS02001619YS02001622 CONDUIT    936.69     0  01:40      1.31    1.38    1.00
  YS02001622YS02001625 CONDUIT    936.94     0  01:40      1.19    0.50    1.00
  YS02001625YS02001629 CONDUIT    938.37     0  01:40      1.20    0.45    1.00
  YS02001629YS02163301 CONDUIT    914.58     0  01:55      1.16    1.13    1.00
  YS02001633YS02163601 CONDUIT   1331.14     0  01:42      1.69    1.40    1.00
  YS02001641YS02001644 CONDUIT   1332.49     0  01:42      1.70    4.31    1.00
  YS02001644YS02001647 CONDUIT   1717.49     0  01:42      2.23    1.01    1.00
  YS02001647YS02001649 CONDUIT   1727.03     0  01:42      2.32    0.91    1.00
  YS02001649YS02001757 CONDUIT   2019.66     0  01:42      2.58    1.23    1.00
  YS02001652YS02001649 CONDUIT    449.44     0  01:47      0.89    0.22    1.00
  YS02001655YS02001652 CONDUIT    478.54     0  01:50      1.49    0.23    1.00
  YS02001658YS02001655 CONDUIT    572.80     0  01:47      2.01    0.24    0.79
  YS02001661YS02001658 CONDUIT    388.13     0  01:44      2.24    0.15    0.46
  YS02001664YS02001661 CONDUIT    380.44     0  01:45      2.09    0.12    0.28
  YS02001745YS02001748 CONDUIT    251.66     0  01:45      2.09    0.10    0.35
  YS02001748YS02001751 CONDUIT    401.66     0  01:45      1.74    0.20    0.65
  YS02001751YS02001754 CONDUIT    436.54     0  01:46      1.56    0.21    0.87
  YS02001754YS02001757 CONDUIT    333.26     0  01:47      0.54    0.13    1.00
  YS02001757CaochengTiaoxuchi CONDUIT   2950.95     0  01:47      6.96    1.28    0.87
  YS02001759YS02001757 CONDUIT    882.87     0  01:45      1.12    0.63    1.00
  YS02001762YS02001759 CONDUIT    539.57     0  01:45      0.69    0.62    1.00
  YS02001765YS02001762 CONDUIT    538.46     0  01:44      0.69    0.50    1.00
  YS02001767YS02001765 CONDUIT    539.28     0  01:45      0.80    0.68    1.00
  YS02001770YS02001767 CONDUIT    541.39     0  01:45      0.84    2.14    1.00
  YS02001774YS02001770 CONDUIT    117.94     0  01:44      0.22    0.08    1.00
  YS02001779YS02001774 CONDUIT    121.82     0  01:44      0.16    0.06    1.00
  YS02001783YS02001784 CONDUIT   1145.74     0  01:44      2.28    1.58    1.00
  YS02001784YS02001785 CONDUIT   1146.68     0  01:44      2.28    2.67    1.00
  YS02001786YS02001788 CONDUIT   1148.55     0  01:47      2.45    2.21    1.00
  YS02001788YS02001790 CONDUIT   1160.66     0  01:44      2.70    0.86    1.00
  YS02001790YS02001791 CONDUIT   1258.81     0  01:45      3.41    1.37    1.00
  YS02001791YS02001793 CONDUIT   1307.21     0  02:11      6.56    0.56    1.00
  YS02001793JiankangQianchi CONDUIT   1670.52     0  02:11     19.37    0.13    1.00
  YS02001882YS02001884 CONDUIT     65.94     0  01:40      0.14    0.08    1.00
  YS02001884YS02001887 CONDUIT     94.11     0  01:40      0.12    0.13    1.00
  YS02001887YS02001890 CONDUIT    392.49     0  01:41      0.50    0.67    1.00
  YS02001890YS02001895 CONDUIT    395.19     0  01:41      0.50    0.18    1.00
  YS02001895YS02001898 CONDUIT    401.69     0  01:41      0.51    0.70    1.00
  YS02001898YS02001901 CONDUIT    412.18     0  01:41      0.52    0.27    1.00
  YS02001901YS02001904 CONDUIT    414.58     0  01:41      0.53    0.64    1.00
  YS02001904YS02001907 CONDUIT    416.11     0  01:41      0.53    0.15    1.00
  YS02001907YS02006553 CONDUIT    689.28     0  01:47      0.77    0.81    1.00
  YS02001910YS02001907 CONDUIT    871.99     0  01:45      1.11    0.49    1.00
  YS02001915YS02001910 CONDUIT    872.51     0  01:45      1.11    0.43    1.00
  YS02001918YS02001915 CONDUIT    425.61     0  01:45      0.54    0.23    1.00
  YS02001920YS02001918 CONDUIT    424.12     0  01:45      0.65    0.41    1.00
  YS02001923YS02001920 CONDUIT    420.35     0  01:45      0.79    0.19    1.00
  YS02001926YS02001923 CONDUIT    356.13     0  01:44      0.95    0.51    1.00
  YS02001929YS02001926 CONDUIT    350.31     0  01:44      1.09    0.17    1.00
  YS02006553YS02006556 CONDUIT    689.45     0  01:47      0.88    0.59    1.00
  YS02006556YS02006558 CONDUIT    688.10     0  01:47      0.88    0.54    1.00
  YS02006558YS02006561 CONDUIT   1145.55     0  01:44      4.05    2.53    1.00
  YS02006561YS02001783 CONDUIT   1145.83     0  01:44      2.28    0.59    1.00
  YS02163301YS02001633 CONDUIT    915.40     0  01:55      1.17    0.86    1.00
  YS02163601YS02164001 CONDUIT   1331.44     0  01:42      1.70    1.18    1.00
  YS02164001YS02001641 CONDUIT   1332.21     0  01:42      1.70    1.82    1.00
  YSB1154YSB6556       CONDUIT    209.69     0  01:45      0.54    0.38    1.00
  YSB1171HS02004479    CONDUIT    386.85     0  01:40      0.77    0.26    1.00
  YSB1174YSB1171       CONDUIT    178.36     0  01:40      0.46    0.27    1.00
  YSB6556YSB1171       CONDUIT    210.13     0  01:44      0.55    0.22    1.00
  CC-R1                PUMP       683.00     0  00:10              1.00
  CC-R2                PUMP       683.00     0  00:40              1.00
  CC-S1                PUMP       200.00     0  00:00              1.00
  CC-S2                PUMP       200.00     0  00:00              1.00
  JK-R1                PUMP      1000.00     0  02:10              1.00
  JK-R2                PUMP      1000.00     0  02:10              1.00
  JK-S                 PUMP       300.00     0  00:10              1.00
  XR-1                 PUMP        95.00     0  00:10              1.00
  XR-2                 PUMP        95.00     0  00:29              1.00
  XR-3                 PUMP         0.00     0  00:00              0.00
  XR-4                 PUMP         0.00     0  00:00              0.00
  
  
  ***************************
  Flow Classification Summary
  ***************************
  
  -------------------------------------------------------------------------------------
                      Adjusted    ---------- Fraction of Time in Flow Class ---------- 
                       /Actual         Up    Down  Sub   Sup   Up    Down  Norm  Inlet 
  Conduit               Length    Dry  Dry   Dry   Crit  Crit  Crit  Crit  Ltd   Ctrl  
  -------------------------------------------------------------------------------------
  1                       1.00   0.00  0.00  0.00  0.00  1.00  0.00  0.00  0.55  0.00
  HS02004478WS02006287    1.00   0.28  0.00  0.00  0.44  0.29  0.00  0.00  0.47  0.00
  HS02004479HS02004480    1.00   0.06  0.00  0.00  0.94  0.00  0.00  0.00  0.15  0.00
  HS02004480HS02004478    1.00   0.25  0.00  0.00  0.38  0.00  0.00  0.37  0.00  0.00
  HS02004770HS02004777    1.00   0.00  0.25  0.00  0.75  0.00  0.00  0.00  0.04  0.00
  HS02004777HS02004785    1.00   0.00  0.00  0.00  1.00  0.00  0.00  0.00  0.16  0.00
  HS02004785HS02004788    1.00   0.00  0.00  0.00  1.00  0.00  0.00  0.00  0.00  0.00
  HS02004788HS02004792    1.00   0.00  0.00  0.00  1.00  0.00  0.00  0.00  0.90  0.00
  HS02004792HS02004799    1.00   0.00  0.00  0.00  0.99  0.01  0.00  0.00  0.84  0.00
  HS02004799HS02004480    1.00   0.00  0.06  0.00  0.73  0.00  0.21  0.00  0.00  0.00
  HS02004802HS02004478    1.00   0.25  0.00  0.00  0.74  0.00  0.00  0.00  0.03  0.00
  HS02004807HS02004802    1.00   0.25  0.00  0.00  0.74  0.00  0.00  0.01  0.00  0.00
  HS02004817HS02004807    1.00   0.00  0.25  0.00  0.75  0.00  0.00  0.00  0.01  0.00
  HS02004817HS02004824    1.00   0.00  0.00  0.00  1.00  0.00  0.00  0.00  0.76  0.00
  HS02004824HS02004830    1.00   0.00  0.00  0.00  1.00  0.00  0.00  0.00  0.01  0.00
  HS02004830HS02004837    1.00   0.00  0.00  0.00  1.00  0.00  0.00  0.00  0.87  0.00
  HS02004837HS02004842    1.00   0.00  0.00  0.00  1.00  0.00  0.00  0.00  0.14  0.00
  HS02004842HS02004848    1.00   0.00  0.25  0.00  0.75  0.00  0.00  0.00  0.43  0.00
  HS02004848HS02004852    1.00   0.25  0.00  0.00  0.75  0.00  0.00  0.00  0.64  0.00
  HS02004852HS02004856    1.00   0.25  0.01  0.00  0.74  0.00  0.00  0.00  0.56  0.00
  HS02004856HS02004862    1.00   0.00  0.28  0.00  0.72  0.00  0.00  0.00  0.68  0.00
  HS02004862HS02004870    1.00   0.00  0.00  0.00  1.00  0.00  0.00  0.00  0.04  0.00
  HS02004870HS02004876    1.00   0.00  0.00  0.00  0.97  0.03  0.00  0.00  0.84  0.00
  HS02004876HS02004881    1.00   0.01  0.00  0.00  0.75  0.24  0.00  0.00  0.00  0.00
  HS02004881HS02006253    1.00   0.00  0.10  0.00  0.57  0.04  0.00  0.29  0.46  0.00
  HS02004901HS02004770    1.00   0.25  0.00  0.00  0.75  0.00  0.00  0.00  0.00  0.00
  WS02001211WS02001212    1.00   0.00  0.03  0.00  0.97  0.00  0.00  0.00  0.00  0.00
  WS02001212WS02001213    1.00   0.03  0.01  0.00  0.55  0.00  0.42  0.00  0.00  0.00
  WS02001213WS02003059    1.00   0.00  0.00  0.00  1.00  0.00  0.00  0.00  0.00  0.00
  WS02003059WS02003060    1.00   0.00  0.00  0.00  1.00  0.00  0.00  0.00  0.04  0.00
  WS02003060WS02003069    1.00   0.00  0.00  0.00  0.95  0.05  0.00  0.00  0.21  0.00
  WS02003066WSF200        1.00   0.10  0.00  0.00  0.00  0.90  0.00  0.00  0.57  0.00
  WS02003067WS02003066    1.00   0.09  0.01  0.00  0.90  0.00  0.00  0.00  0.00  0.00
  WS02003069WS02003072    1.00   0.00  0.00  0.00  1.00  0.00  0.00  0.00  0.33  0.00
  WS02003072WS02003073    1.00   0.00  0.00  0.00  0.00  0.00  0.00  1.00  0.00  0.00
  WS02004138WS02004139    1.00   0.01  0.00  0.00  0.96  0.02  0.00  0.00  0.97  0.00
  WS02004139WS02001211    1.00   0.00  0.00  0.00  1.00  0.00  0.00  0.00  0.01  0.00
  WS02004401WS02004402    1.00   0.03  0.00  0.00  0.97  0.00  0.00  0.00  0.00  0.00
  WS02004402WS02004403    1.00   0.03  0.00  0.00  0.96  0.00  0.00  0.00  0.00  0.00
  WS02004403WS02004404    1.00   0.00  0.04  0.00  0.96  0.00  0.00  0.00  0.00  0.00
  WS02004404WS02004405    1.00   0.00  0.00  0.00  1.00  0.00  0.00  0.00  0.01  0.00
  WS02004405WS02004406    1.00   0.00  0.00  0.00  1.00  0.00  0.00  0.00  0.00  0.00
  WS02004406WS02004407    1.00   0.00  0.06  0.00  0.94  0.00  0.00  0.00  0.00  0.00
  WS02004407WS02004409    1.00   0.06  0.00  0.00  0.91  0.03  0.00  0.00  0.80  0.00
  WS02004409WS02004410    1.00   0.06  0.00  0.00  0.94  0.00  0.00  0.00  0.00  0.00
  WS02004410WS02004411    1.00   0.06  0.00  0.00  0.93  0.00  0.00  0.00  0.00  0.00
  WS02004411WS02004412    1.00   0.07  0.00  0.00  0.93  0.00  0.00  0.00  0.00  0.00
  WS02004412WS02004413    1.00   0.07  0.00  0.00  0.92  0.01  0.00  0.00  0.00  0.00
  WS02004413WS02003067    1.00   0.07  0.02  0.00  0.00  0.00  0.91  0.00  0.00  0.00
  WS02006109WS02006110    1.00   0.00  0.00  0.00  0.99  0.00  0.01  0.00  0.00  0.00
  WS02006110WS02006113    1.00   0.00  0.01  0.00  0.99  0.00  0.00  0.00  0.00  0.00
  WS02006111WS02006112    1.00   0.02  0.00  0.00  0.97  0.01  0.00  0.01  0.68  0.00
  WS02006112WS02006115    1.00   0.02  0.01  0.00  0.96  0.00  0.01  0.00  0.00  0.00
  WS02006113WS02006111    1.00   0.01  0.00  0.00  0.22  0.76  0.00  0.00  0.17  0.00
  WS02006115WS02006116    1.00   0.03  0.00  0.00  0.96  0.00  0.00  0.02  0.00  0.00
  WS02006116WS02004401    1.00   0.03  0.00  0.00  0.97  0.00  0.00  0.00  0.00  0.00
  WS02006228WS02006109    1.00   0.00  0.00  0.00  1.00  0.00  0.00  0.00  0.01  0.00
  WS02006229WS02006228    1.00   0.00  0.00  0.00  0.99  0.00  0.00  0.01  0.00  0.00
  WS02006230WS02006229    1.00   0.00  0.00  0.00  0.99  0.00  0.00  0.01  0.00  0.00
  WS02006231WS02006230    1.00   0.01  0.00  0.00  0.54  0.00  0.45  0.00  0.00  0.00
  WS02006232WS02006231    1.00   0.00  0.00  0.00  0.99  0.00  0.00  0.00  0.00  0.00
  WS02006234WS02006232    1.00   0.00  0.00  0.00  0.99  0.00  0.00  0.00  0.00  0.00
  WS02006235WS02006234    1.00   0.00  0.00  0.00  0.96  0.00  0.04  0.00  0.00  0.00
  WS02006238WS02006235    1.00   0.00  0.00  0.00  1.00  0.00  0.00  0.00  0.00  0.00
  WS02006239WS02006238    1.00   0.00  0.00  0.00  1.00  0.00  0.00  0.00  0.00  0.00
  WS02006240WS02006239    1.00   0.00  0.00  0.00  0.93  0.00  0.00  0.06  0.00  0.00
  WS02006242WS02006240    1.00   0.00  0.00  0.00  0.99  0.00  0.01  0.00  0.00  0.00
  WS02006243WS02006242    1.00   0.00  0.00  0.00  1.00  0.00  0.00  0.00  0.30  0.00
  WS02006245WS02006243    1.00   0.00  0.00  0.00  0.96  0.00  0.00  0.04  0.00  0.00
  WS02006247WS02006245    1.00   0.00  0.00  0.00  0.99  0.00  0.00  0.01  0.00  0.00
  WS02006248WS02006247    1.00   0.00  0.00  0.00  1.00  0.00  0.00  0.00  0.31  0.00
  WS02006249WS02006248    1.00   0.00  0.00  0.00  0.80  0.00  0.20  0.00  0.00  0.00
  WS02006251WS02006249    1.00   0.00  0.00  0.00  1.00  0.00  0.00  0.00  0.28  0.00
  WS02006252WS02006251    1.00   0.00  0.05  0.00  0.22  0.00  0.72  0.00  0.00  0.00
  WS02006253WS02006251    1.00   0.00  0.00  0.00  1.00  0.00  0.00  0.00  0.00  0.00
  WS02006256WS02006235    1.00   0.00  0.00  0.00  1.00  0.00  0.00  0.00  0.00  0.00
  WS02006280WS02006229    1.00   0.26  0.00  0.00  0.16  0.04  0.00  0.54  0.01  0.00
  WS02006284WS02006280    1.00   0.26  0.00  0.00  0.11  0.01  0.00  0.63  0.00  0.00
  WS02006287WS02006284    1.00   0.24  0.04  0.00  0.35  0.37  0.00  0.00  0.53  0.00
  WSF200WS02003060        1.00   0.00  0.10  0.00  0.48  0.42  0.00  0.00  0.39  0.00
  YS02001580YS02001583    1.00   0.36  0.44  0.00  0.21  0.00  0.00  0.00  0.63  0.00
  YS02001583YS02001586    1.00   0.28  0.41  0.00  0.31  0.00  0.00  0.00  0.63  0.00
  YS02001586YS02001590    1.00   0.25  0.00  0.00  0.49  0.09  0.00  0.17  0.47  0.00
  YS02001590YS02001593    1.00   0.25  0.00  0.00  0.11  0.00  0.64  0.00  0.00  0.00
  YS02001593YS02001596    1.00   0.25  0.00  0.00  0.14  0.01  0.00  0.60  0.03  0.00
  YS02001596YS02001600    1.00   0.26  0.00  0.00  0.26  0.02  0.00  0.47  0.09  0.00
  YS02001600YS02001601    1.00   0.25  0.00  0.00  0.74  0.00  0.00  0.00  0.48  0.00
  YS02001601YS02001602    1.00   0.25  0.00  0.00  0.75  0.00  0.00  0.00  0.00  0.00
  YS02001602YS02001605    1.00   0.25  0.00  0.00  0.74  0.00  0.00  0.00  0.00  0.00
  YS02001605YS02001607    1.00   0.26  0.00  0.00  0.74  0.00  0.00  0.00  0.00  0.00
  YS02001607YS02001610    1.00   0.25  0.00  0.00  0.74  0.00  0.00  0.00  0.02  0.00
  YS02001610YS02001613    1.00   0.25  0.00  0.00  0.75  0.00  0.00  0.00  0.01  0.00
  YS02001613YS02001616    1.00   0.25  0.00  0.00  0.75  0.00  0.00  0.00  0.01  0.00
  YS02001616YS02001619    1.00   0.25  0.00  0.00  0.75  0.00  0.00  0.00  0.00  0.00
  YS02001619YS02001622    1.00   0.25  0.00  0.00  0.75  0.00  0.00  0.00  0.07  0.00
  YS02001622YS02001625    1.00   0.25  0.00  0.00  0.75  0.00  0.00  0.00  0.06  0.00
  YS02001625YS02001629    1.00   0.25  0.05  0.00  0.17  0.00  0.52  0.00  0.00  0.00
  YS02001629YS02163301    1.00   0.27  0.01  0.00  0.72  0.00  0.00  0.00  0.00  0.00
  YS02001633YS02163601    1.00   0.00  0.00  0.00  1.00  0.00  0.00  0.00  0.20  0.00
  YS02001641YS02001644    1.00   0.00  0.00  0.00  1.00  0.00  0.00  0.00  0.00  0.00
  YS02001644YS02001647    1.00   0.00  0.29  0.00  0.71  0.00  0.00  0.00  0.00  0.00
  YS02001647YS02001649    1.00   0.00  0.29  0.00  0.47  0.24  0.00  0.00  0.47  0.00
  YS02001649YS02001757    1.00   0.00  0.00  0.00  0.83  0.17  0.00  0.00  0.59  0.00
  YS02001652YS02001649    1.00   0.00  0.00  0.00  0.94  0.06  0.00  0.00  0.60  0.00
  YS02001655YS02001652    1.00   0.00  0.00  0.00  0.30  0.01  0.00  0.68  0.19  0.00
  YS02001658YS02001655    1.00   0.00  0.26  0.00  0.35  0.39  0.00  0.00  0.69  0.00
  YS02001661YS02001658    1.00   0.26  0.00  0.00  0.17  0.57  0.00  0.00  0.70  0.00
  YS02001664YS02001661    1.00   0.25  0.00  0.00  0.57  0.18  0.00  0.00  0.83  0.00
  YS02001745YS02001748    1.00   0.00  0.00  0.00  0.01  0.01  0.00  0.98  0.02  0.00
  YS02001748YS02001751    1.00   0.00  0.00  0.00  0.63  0.37  0.00  0.00  0.79  0.00
  YS02001751YS02001754    1.00   0.00  0.00  0.00  0.27  0.01  0.00  0.71  0.23  0.00
  YS02001754YS02001757    1.00   0.00  0.00  0.00  1.00  0.00  0.00  0.00  0.68  0.00
  YS02001757CaochengTiaoxuchi    1.00   0.00  0.00  0.00  0.66  0.34  0.00  0.00  0.32  0.00
  YS02001759YS02001757    1.00   0.00  0.00  0.00  1.00  0.00  0.00  0.00  0.58  0.00
  YS02001762YS02001759    1.00   0.00  0.00  0.00  1.00  0.00  0.00  0.00  0.05  0.00
  YS02001765YS02001762    1.00   0.00  0.00  0.00  1.00  0.00  0.00  0.00  0.59  0.00
  YS02001767YS02001765    1.00   0.00  0.00  0.00  1.00  0.00  0.00  0.00  0.00  0.00
  YS02001770YS02001767    1.00   0.00  0.00  0.00  1.00  0.00  0.00  0.00  0.00  0.00
  YS02001774YS02001770    1.00   0.00  0.25  0.00  0.75  0.00  0.00  0.00  0.04  0.00
  YS02001779YS02001774    1.00   0.00  0.00  0.00  1.00  0.00  0.00  0.00  0.67  0.00
  YS02001783YS02001784    1.00   0.00  0.31  0.00  0.69  0.00  0.00  0.00  0.41  0.00
  YS02001784YS02001785    1.00   0.00  0.00  0.00  1.00  0.00  0.00  0.00  0.22  0.00
  YS02001786YS02001788    1.00   0.00  0.00  0.00  0.71  0.29  0.00  0.00  0.00  0.00
  YS02001788YS02001790    1.00   0.00  0.00  0.00  0.39  0.61  0.00  0.00  0.76  0.00
  YS02001790YS02001791    1.00   0.00  0.00  0.00  0.07  0.93  0.00  0.00  0.20  0.00
  YS02001791YS02001793    1.00   0.00  0.00  0.00  0.07  0.93  0.00  0.00  0.01  0.00
  YS02001793JiankangQianchi    1.00   0.00  0.00  0.00  0.22  0.78  0.00  0.00  0.19  0.00
  YS02001882YS02001884    1.00   0.26  0.01  0.00  0.73  0.00  0.00  0.00  0.00  0.00
  YS02001884YS02001887    1.00   0.13  0.11  0.00  0.76  0.00  0.00  0.00  0.00  0.00
  YS02001887YS02001890    1.00   0.00  0.00  0.00  0.95  0.00  0.04  0.00  0.00  0.00
  YS02001890YS02001895    1.00   0.00  0.28  0.00  0.72  0.00  0.00  0.00  0.00  0.00
  YS02001895YS02001898    1.00   0.28  0.00  0.00  0.68  0.00  0.04  0.00  0.00  0.00
  YS02001898YS02001901    1.00   0.28  0.00  0.00  0.72  0.00  0.00  0.00  0.01  0.00
  YS02001901YS02001904    1.00   0.28  0.00  0.00  0.72  0.00  0.00  0.00  0.00  0.00
  YS02001904YS02001907    1.00   0.00  0.28  0.00  0.72  0.00  0.00  0.00  0.00  0.00
  YS02001907YS02006553    1.00   0.00  0.02  0.00  0.98  0.00  0.00  0.00  0.00  0.00
  YS02001910YS02001907    1.00   0.00  0.00  0.00  0.96  0.01  0.00  0.03  0.16  0.00
  YS02001915YS02001910    1.00   0.00  0.00  0.00  0.96  0.04  0.00  0.00  0.20  0.00
  YS02001918YS02001915    1.00   0.00  0.00  0.00  0.97  0.03  0.00  0.00  0.69  0.00
  YS02001920YS02001918    1.00   0.00  0.00  0.00  1.00  0.00  0.00  0.00  0.00  0.00
  YS02001923YS02001920    1.00   0.00  0.00  0.00  1.00  0.00  0.00  0.00  0.91  0.00
  YS02001926YS02001923    1.00   0.00  0.17  0.00  0.05  0.00  0.77  0.00  0.00  0.00
  YS02001929YS02001926    1.00   0.00  0.25  0.00  0.75  0.00  0.00  0.00  0.77  0.00
  YS02006553YS02006556    1.00   0.01  0.00  0.00  0.99  0.00  0.00  0.00  0.04  0.00
  YS02006556YS02006558    1.00   0.00  0.00  0.00  1.00  0.00  0.00  0.00  0.00  0.00
  YS02006558YS02006561    1.00   0.31  0.00  0.00  0.07  0.63  0.00  0.00  0.27  0.00
  YS02006561YS02001783    1.00   0.31  0.00  0.00  0.09  0.61  0.00  0.00  0.61  0.00
  YS02163301YS02001633    1.00   0.00  0.27  0.00  0.73  0.00  0.00  0.00  0.00  0.00
  YS02163601YS02164001    1.00   0.00  0.19  0.00  0.81  0.00  0.00  0.00  0.00  0.00
  YS02164001YS02001641    1.00   0.00  0.19  0.00  0.80  0.00  0.00  0.00  0.07  0.00
  YSB1154YSB6556          1.00   0.25  0.00  0.00  0.75  0.00  0.00  0.00  0.02  0.00
  YSB1171HS02004479       1.00   0.07  0.00  0.00  0.89  0.01  0.00  0.04  0.14  0.00
  YSB1174YSB1171          1.00   0.10  0.13  0.00  0.77  0.00  0.00  0.00  0.00  0.00
  YSB6556YSB1171          1.00   0.07  0.18  0.00  0.75  0.00  0.00  0.00  0.00  0.00
  
  
  *************************
  Conduit Surcharge Summary
  *************************
  
  ----------------------------------------------------------------------------
                                                           Hours        Hours 
                         --------- Hours Full --------   Above Full   Capacity
  Conduit                Both Ends  Upstream  Dnstream   Normal Flow   Limited
  ----------------------------------------------------------------------------
  HS02004478WS02006287        0.29      0.29      0.47      0.01         0.01
  HS02004479HS02004480        0.48      0.48      0.50      0.01         0.01
  HS02004480HS02004478        0.41      0.48      0.41      1.65         0.41
  HS02004770HS02004777        0.38      0.39      0.39      0.15         0.11
  HS02004777HS02004785        0.33      0.33      0.39      0.01         0.01
  HS02004785HS02004788        0.31      0.33      0.31      1.35         0.31
  HS02004788HS02004792        0.31      0.31      0.45      0.01         0.01
  HS02004792HS02004799        0.45      0.45      0.56      0.01         0.01
  HS02004799HS02004480        0.48      0.48      0.56      0.67         0.01
  HS02004802HS02004478        0.42      0.42      0.49      0.01         0.01
  HS02004807HS02004802        0.47      0.47      0.48      0.01         0.01
  HS02004817HS02004807        0.47      0.47      1.10      0.01         0.01
  HS02004817HS02004824        0.31      0.31      1.10      0.01         0.01
  HS02004824HS02004830        0.27      0.27      0.31      0.01         0.01
  HS02004830HS02004837        0.22      0.22      0.27      0.01         0.01
  HS02004837HS02004842        0.22      0.22      0.39      0.01         0.01
  HS02004842HS02004848        0.15      0.15      0.39      0.01         0.01
  HS02004848HS02004852        0.15      0.15      0.20      0.03         0.01
  HS02004852HS02004856        0.20      0.20      0.22      0.02         0.01
  HS02004856HS02004862        0.15      0.15      0.23      0.01         0.01
  HS02004862HS02004870        0.23      0.23      0.24      0.01         0.01
  HS02004870HS02004876        0.24      0.24      0.29      0.01         0.01
  HS02004876HS02004881        0.26      0.29      0.26      1.40         0.26
  HS02004881HS02006253        0.26      0.26      1.37      0.01         0.01
  HS02004901HS02004770        0.39      0.39      0.39      0.01         0.01
  WS02003072WS02003073        0.01      0.01      0.01      3.17         0.01
  WS02004401WS02004402        1.54      1.54      1.58      1.20         1.19
  WS02004402WS02004403        1.58      1.58      1.60      1.53         1.50
  WS02004403WS02004404        1.60      1.60      1.69      0.01         0.01
  WS02004404WS02004405        1.68      1.69      1.68      4.33         1.68
  WS02004405WS02004406        1.67      1.68      1.67      1.75         1.67
  WS02004406WS02004407        0.01      0.01      1.67      0.01         0.01
  WS02004407WS02004409        0.01      0.01      0.79      0.01         0.01
  WS02004409WS02004410        0.76      0.79      0.76      1.31         0.76
  WS02004410WS02004411        0.72      0.76      0.72      1.44         0.72
  WS02004411WS02004412        0.60      0.72      0.60      1.51         0.60
  WS02004412WS02004413        0.60      0.60      1.13      0.01         0.01
  WS02004413WS02003067        0.01      0.01      1.13      0.01         0.01
  WS02006109WS02006110        1.73      1.73      2.51      1.73         0.01
  WS02006110WS02006113        1.13      1.13      2.45      0.29         0.01
  WS02006111WS02006112        1.12      1.12      2.98      0.01         0.01
  WS02006112WS02006115        1.34      1.34      1.88      0.01         0.01
  WS02006113WS02006111        1.12      1.13      1.12      1.20         1.12
  WS02006115WS02006116        1.37      1.37      1.38      1.32         1.28
  WS02006116WS02004401        1.52      1.52      1.54      1.48         1.45
  WS02006228WS02006109        2.40      2.51      2.40      3.38         2.40
  WS02006229WS02006228        2.39      2.42      2.39      2.95         2.39
  WS02006230WS02006229        2.68      2.82      2.68      4.63         1.86
  WS02006231WS02006230        1.66      1.66      1.72      3.92         0.79
  WS02006232WS02006231        1.68      1.68      2.34      0.01         0.12
  WS02006234WS02006232        2.23      2.23      2.34      0.01         0.01
  WS02006235WS02006234        2.18      2.18      2.25      3.64         0.79
  WS02006238WS02006235        2.26      2.26      2.32      0.01         0.27
  WS02006239WS02006238        2.24      2.25      2.28      1.46         0.43
  WS02006240WS02006239        2.11      2.12      2.16      1.46         0.39
  WS02006242WS02006240        2.08      2.08      2.34      1.87         0.75
  WS02006243WS02006242        1.86      1.86      2.20      0.01         0.01
  WS02006245WS02006243        1.80      1.80      1.83      0.86         0.37
  WS02006247WS02006245        1.79      1.81      1.79      3.25         0.78
  WS02006248WS02006247        1.73      1.73      1.80      0.01         0.01
  WS02006249WS02006248        1.70      1.70      1.74      1.97         0.01
  WS02006251WS02006249        1.71      1.73      1.74      1.86         1.28
  WS02006252WS02006251        2.21      2.22      2.30      1.23         0.01
  WS02006253WS02006251        1.73      1.73      1.76      0.61         0.03
  WS02006256WS02006235        3.90      3.91      5.90      0.53         0.01
  WS02006280WS02006229        0.61      0.61      0.76      0.01         0.01
  WS02006284WS02006280        0.50      0.50      0.59      0.01         0.01
  WS02006287WS02006284        0.40      0.40      0.51      0.02         0.03
  YS02001580YS02001583        0.35      0.35      0.42      0.01         0.01
  YS02001583YS02001586        0.36      0.36      0.52      0.01         0.01
  YS02001586YS02001590        0.53      0.53      0.61      0.01         0.01
  YS02001590YS02001593        0.61      0.61      0.63      0.67         0.01
  YS02001593YS02001596        0.62      0.62      0.72      0.01         0.01
  YS02001596YS02001600        0.76      0.76      0.88      0.01         0.01
  YS02001600YS02001601        0.96      0.96      1.36      0.01         0.01
  YS02001601YS02001602        1.19      1.19      1.43      0.91         0.01
  YS02001602YS02001605        1.11      1.11      1.19      2.13         0.01
  YS02001605YS02001607        1.05      1.11      1.05      1.29         1.05
  YS02001607YS02001610        0.53      0.53      0.56      0.01         0.01
  YS02001610YS02001613        0.52      0.52      0.56      0.01         0.01
  YS02001613YS02001616        0.46      0.46      0.52      0.01         0.01
  YS02001616YS02001619        0.45      0.45      0.46      0.01         0.01
  YS02001619YS02001622        0.44      0.45      0.44      0.65         0.43
  YS02001622YS02001625        0.44      0.44      0.66      0.01         0.01
  YS02001625YS02001629        0.31      0.31      0.66      0.01         0.01
  YS02001629YS02163301        0.64      0.64      0.65      0.42         0.40
  YS02001633YS02163601        0.67      0.67      0.70      0.54         0.55
  YS02001641YS02001644        0.48      0.55      0.48      1.49         0.48
  YS02001644YS02001647        0.17      0.17      0.48      0.01         0.01
  YS02001647YS02001649        0.17      0.17      0.23      0.01         0.01
  YS02001649YS02001757        0.20      0.23      0.20      0.33         0.20
  YS02001652YS02001649        0.10      0.10      0.23      0.01         0.01
  YS02001655YS02001652        0.01      0.01      0.09      0.01         0.01
  YS02001658YS02001655        0.01      0.01      0.01      0.01         0.01
  YS02001751YS02001754        0.01      0.01      0.01      0.01         0.01
  YS02001754YS02001757        0.01      0.01      0.20      0.01         0.01
  YS02001757CaochengTiaoxuchi        0.01      0.20      1.50      0.33         0.01
  YS02001759YS02001757        0.15      0.15      0.20      0.01         0.01
  YS02001762YS02001759        0.13      0.13      0.15      0.01         0.01
  YS02001765YS02001762        0.11      0.11      0.13      0.01         0.01
  YS02001767YS02001765        0.10      0.10      0.11      0.01         0.01
  YS02001770YS02001767        0.10      0.11      0.10      0.43         0.08
  YS02001774YS02001770        0.08      0.08      0.14      0.01         0.01
  YS02001779YS02001774        0.01      0.01      0.14      0.01         0.01
  YS02001783YS02001784        0.50      0.51      0.50      0.58         0.49
  YS02001784YS02001785        0.46      0.50      0.46      0.78         0.46
  YS02001786YS02001788        0.39      0.46      0.39      0.66         0.39
  YS02001788YS02001790        0.39      0.39      0.40      0.01         0.01
  YS02001790YS02001791        0.39      0.40      0.39      0.31         0.19
  YS02001791YS02001793        0.39      0.39      0.49      0.01         0.01
  YS02001793JiankangQianchi        0.46      0.46      1.15      0.01         0.01
  YS02001882YS02001884        0.41      0.41      0.42      0.01         0.01
  YS02001884YS02001887        0.45      0.45      0.46      0.01         0.01
  YS02001887YS02001890        0.48      0.48      0.49      0.01         0.01
  YS02001890YS02001895        0.40      0.40      0.50      0.01         0.01
  YS02001895YS02001898        0.39      0.39      0.40      0.01         0.01
  YS02001898YS02001901        0.40      0.40      0.45      0.01         0.01
  YS02001901YS02001904        0.44      0.44      0.45      0.01         0.01
  YS02001904YS02001907        0.44      0.44      0.64      0.01         0.01
  YS02001907YS02006553        0.78      0.78      0.85      0.01         0.01
  YS02001910YS02001907        0.50      0.50      0.63      0.01         0.01
  YS02001915YS02001910        0.41      0.41      0.50      0.01         0.01
  YS02001918YS02001915        0.28      0.28      0.41      0.01         0.01
  YS02001920YS02001918        0.29      0.29      0.30      0.01         0.01
  YS02001923YS02001920        0.20      0.20      0.30      0.01         0.01
  YS02001926YS02001923        0.01      0.01      0.01      0.01         0.01
  YS02001929YS02001926        0.01      0.01      0.01      0.01         0.01
  YS02006553YS02006556        0.57      0.57      0.65      0.01         0.01
  YS02006556YS02006558        0.60      0.60      0.66      0.01         0.01
  YS02006558YS02006561        0.42      0.56      0.42      0.73         0.42
  YS02006561YS02001783        0.32      0.32      0.51      0.01         0.01
  YS02163301YS02001633        0.65      0.65      0.70      0.01         0.01
  YS02163601YS02164001        0.57      0.57      0.70      0.36         0.01
  YS02164001YS02001641        0.55      0.57      0.55      0.75         0.55
  YSB1154YSB6556              0.53      0.53      0.70      0.01         0.01
  YSB1171HS02004479           0.44      0.44      0.70      0.01         0.01
  YSB1174YSB1171              0.60      0.60      0.99      0.01         0.01
  YSB6556YSB1171              0.53      0.53      1.17      0.01         0.01
  
  
  ***************
  Pumping Summary
  ***************
  
  ---------------------------------------------------------------------------------------------------------
                                                  Min       Avg       Max     Total     Power    % Time Off
                        Percent   Number of      Flow      Flow      Flow    Volume     Usage    Pump Curve
  Pump                 Utilized   Start-Ups       LPS       LPS       LPS  10^6 ltr     Kw-hr    Low   High
  ---------------------------------------------------------------------------------------------------------
  CC-R1                   69.39           9      0.00    518.10    683.00     6.715    115.05    0.0   69.9
  CC-R2                   30.62           8      0.00    372.11    683.00     2.279     37.88    0.0   86.4
  CC-S1                   63.98           8      0.00    153.52    200.00     1.946     14.50    0.0   55.0
  CC-S2                   38.95           7      0.00    112.94    200.00     1.041      8.45    0.0   63.5
  JK-R1                   61.05           7      0.00    103.53   1000.00     1.246      6.36    0.0    0.0
  JK-R2                   35.99           9      0.00    177.14   1000.00     1.164      6.18    0.0    0.0
  JK-S                    33.37           8      0.00    139.86    300.00     1.003     16.73    0.0    0.0
  XR-1                    97.21           1      0.00     95.00     95.00     1.995      8.84    0.0    0.0
  XR-2                    91.94           1      0.00     95.00     95.00     1.887      8.00    0.0    0.0
  XR-3                     0.00           0      0.00      0.00      0.00     0.000      0.00    0.0    0.0
  XR-4                     0.00           0      0.00      0.00      0.00     0.000      0.00    0.0    0.0
  

  Analysis begun on:  Mon Aug 22 16:55:56 2022
  Analysis ended on:  Mon Aug 22 16:56:00 2022
  Total elapsed time: 00:00:04