
  EPA STORM WATER MANAGEMENT MODEL - VERSION 5.1 (Build 5.3.0.dev0)
  --------------------------------------------------------------

  WARNING 04: minimum elevation drop used for Conduit WS02004404WS02004405
  WARNING 03: negative offset ignored for Link YS02001904YS02001907
  
  *********************************************************
  NOTE: The summary statistics displayed in this report are
  based on results found at every computational time step,  
  not just on results from each reporting time step.
  *********************************************************
  
  ****************
  Analysis Options
  ****************
  Flow Units ............... LPS
  Process Models:
    Rainfall/Runoff ........ YES
    RDII ................... NO
    Snowmelt ............... NO
    Groundwater ............ NO
    Flow Routing ........... YES
    Ponding Allowed ........ NO
    Water Quality .......... NO
  Infiltration Method ...... HORTON
  Flow Routing Method ...... DYNWAVE
  Surcharge Method ......... EXTRAN
  Starting Date ............ 01/01/2000 00:00:00
  Ending Date .............. 01/01/2000 06:00:00
  Antecedent Dry Days ...... 8.0
  Report Time Step ......... 00:01:00
  Wet Time Step ............ 00:01:00
  Dry Time Step ............ 00:01:00
  Routing Time Step ........ 30.00 sec
  Variable Time Step ....... YES
  Maximum Trials ........... 8
  Number of Threads ........ 4
  Head Tolerance ........... 0.001500 m
  
  
  **************************        Volume         Depth
  Runoff Quantity Continuity     hectare-m            mm
  **************************     ---------       -------
  Total Precipitation ......         4.738        78.206
  Evaporation Loss .........         0.000         0.000
  Infiltration Loss ........         0.244         4.032
  Surface Runoff ...........         4.429        73.110
  Final Storage ............         0.065         1.077
  Continuity Error (%) .....        -0.018
  
  
  **************************        Volume        Volume
  Flow Routing Continuity        hectare-m      10^6 ltr
  **************************     ---------     ---------
  Dry Weather Inflow .......         0.472         4.722
  Wet Weather Inflow .......         4.429        44.293
  Groundwater Inflow .......         0.000         0.000
  RDII Inflow ..............         0.000         0.000
  External Inflow ..........         0.078         0.784
  External Outflow .........         3.245        32.451
  Flooding Loss ............         2.088        20.879
  Evaporation Loss .........         0.000         0.000
  Exfiltration Loss ........         0.000         0.000
  Initial Stored Volume ....         0.303         3.031
  Final Stored Volume ......         0.172         1.715
  Continuity Error (%) .....        -4.194
  
  
  *************************
  Highest Continuity Errors
  *************************
  Node JK-storage (-34.84%)
  Node YS02001884 (5.45%)
  Node YS02001583 (-4.99%)
  Node CC-storage (-3.07%)
  Node HS02004842 (1.42%)
  
  
  ***************************
  Time-Step Critical Elements
  ***************************
  Link WS02006252WS02006251 (49.13%)
  Link WS02006238WS02006235 (13.42%)
  Link WS02006280WS02006229 (10.36%)
  Link YS02001793JiankangQianchi (7.73%)
  Link YS02001791YS02001793 (5.16%)
  
  
  ********************************
  Highest Flow Instability Indexes
  ********************************
  Link WS02006113WS02006111 (37)
  Link WS02006111WS02006112 (25)
  Link WS02006238WS02006235 (22)
  Link WS02004404WS02004405 (21)
  Link WS02006239WS02006238 (18)
  
  
  *************************
  Routing Time Step Summary
  *************************
  Minimum Time Step           :     0.50 sec
  Average Time Step           :     1.39 sec
  Maximum Time Step           :     4.61 sec
  Percent in Steady State     :    -0.00
  Average Iterations per Step :     3.12
  Percent Not Converging      :     8.56
  
  
  ***************************
  Subcatchment Runoff Summary
  ***************************
  
  ------------------------------------------------------------------------------------------------------------------------------
                            Total      Total      Total      Total     Imperv       Perv      Total       Total     Peak  Runoff
                           Precip      Runon       Evap      Infil     Runoff     Runoff     Runoff      Runoff   Runoff   Coeff
  Subcatchment                 mm         mm         mm         mm         mm         mm         mm    10^6 ltr      LPS
  ------------------------------------------------------------------------------------------------------------------------------
  sub0                      78.21       0.00       0.00       1.02      71.47       4.45      75.93        0.06    35.14   0.971
  sub1                      78.21       0.00       0.00       1.74      68.30       6.86      75.16        0.50   260.64   0.961
  sub10                     78.21       0.00       0.00       1.23      70.61       5.03      75.64        0.83   441.03   0.967
  sub11                     78.21       0.00       0.00       1.21      70.65       5.05      75.70        0.88   480.00   0.968
  sub12                     78.21       0.00       0.00       1.97      66.85       8.20      75.05        0.66   372.43   0.960
  sub14                     78.21       0.00       0.00       1.38      69.87       5.66      75.52        0.72   386.98   0.966
  sub15                     78.21       0.00       0.00       5.37      53.74      18.10      71.83        1.24   610.81   0.919
  sub16                     78.21       0.00       0.00       5.57      51.47      20.24      71.72        0.75   400.42   0.917
  sub17                     78.21       0.00       0.00       5.43      52.24      19.60      71.84        0.62   326.39   0.919
  sub2                      78.21       0.00       0.00       7.64      48.31      21.30      69.61        0.65   272.15   0.890
  sub22                     78.21       0.00       0.00       8.12      43.78      25.51      69.29        4.38  2033.83   0.886
  sub23                     78.21       0.00       0.00       6.64      48.39      22.31      70.69        3.37  1674.32   0.904
  sub3                      78.21       0.00       0.00       8.15      48.23      20.64      68.87        1.55   586.77   0.881
  sub4                      78.21       0.00       0.00       1.93      67.98       6.67      74.66        1.56   647.30   0.955
  sub5                      78.21       0.00       0.00       1.07      71.37       4.40      75.77        0.86   448.06   0.969
  sub60                     78.21       0.00       0.00       1.86      67.59       7.53      75.12        0.99   543.17   0.961
  sub61                     78.21       0.00       0.00       2.69      63.75      10.61      74.36        1.36   753.59   0.951
  sub62                     78.21       0.00       0.00       1.24      70.60       5.02      75.63        2.07  1085.38   0.967
  sub63                     78.21       0.00       0.00       4.94      54.53      17.74      72.27        1.64   861.15   0.924
  sub64                     78.21       0.00       0.00       2.50      65.20       9.23      74.43        1.79   896.62   0.952
  sub65                     78.21       0.00       0.00       2.16      66.70       8.00      74.70        2.06  1006.10   0.955
  sub66                     78.21       0.00       0.00       6.07      54.33      16.61      70.94        3.31  1318.73   0.907
  sub67                     78.21       0.00       0.00       1.19      70.68       5.07      75.75        1.41   793.12   0.969
  sub68                     78.21       0.00       0.00       2.23      66.03       8.72      74.75        2.06  1104.40   0.956
  sub69                     78.21       0.00       0.00       1.99      66.27       9.74      76.02        2.81  1341.12   0.972
  sub7                      78.21       0.00       0.00       1.36      69.90       5.68      75.57        0.25   140.77   0.966
  sub70                     78.21       0.00       0.00       6.57      51.31      20.03      71.34        2.06   738.75   0.912
  sub71                     78.21       0.00       0.00       1.27      70.53       4.99      75.52        1.97   972.68   0.966
  sub72                     78.21       0.00       0.00       1.13      71.18       4.35      75.53        1.04   473.46   0.966
  sub8                      78.21       0.00       0.00       1.38      69.88       5.66      75.54        0.48   261.91   0.966
  sub9                      78.21       0.00       0.00       1.38      69.87       5.66      75.53        0.36   196.27   0.966
  
  
  ******************
  Node Depth Summary
  ******************
  
  ---------------------------------------------------------------------------------
                                 Average  Maximum  Maximum  Time of Max    Reported
                                   Depth    Depth      HGL   Occurrence   Max Depth
  Node                 Type       Meters   Meters   Meters  days hr:min      Meters
  ---------------------------------------------------------------------------------
  HS02004478           JUNCTION     0.25     1.59    10.81     0  01:50        1.58
  HS02004479           JUNCTION     0.32     1.69    10.89     0  01:43        1.66
  HS02004480           JUNCTION     0.29     1.67    10.91     0  01:43        1.63
  HS02004770           JUNCTION     0.29     1.42    11.25     0  01:40        1.42
  HS02004777           JUNCTION     0.31     1.48    11.28     0  01:40        1.45
  HS02004785           JUNCTION     0.21     1.46    11.36     0  01:40        1.35
  HS02004788           JUNCTION     0.19     1.42    11.32     0  01:40        1.34
  HS02004792           JUNCTION     0.24     1.60    11.12     0  01:40        1.60
  HS02004799           JUNCTION     0.35     1.76    10.97     0  01:42        1.76
  HS02004802           JUNCTION     0.35     1.80    10.93     0  01:46        1.79
  HS02004807           JUNCTION     0.32     1.92    11.09     0  01:43        1.92
  HS02004817           JUNCTION     0.62     2.41    11.26     0  01:49        2.40
  HS02004824           JUNCTION     0.21     2.01    11.41     0  01:49        2.01
  HS02004830           JUNCTION     0.21     1.99    11.46     0  01:50        1.98
  HS02004837           JUNCTION     0.18     1.94    11.52     0  01:43        1.91
  HS02004842           JUNCTION     0.46     2.22    11.49     0  01:42        2.22
  HS02004848           JUNCTION     0.16     2.07    11.67     0  01:42        1.99
  HS02004852           JUNCTION     0.16     2.12    11.63     0  01:42        2.07
  HS02004856           JUNCTION     0.22     2.07    11.50     0  01:42        2.07
  HS02004862           JUNCTION     0.18     2.00    11.38     0  01:42        2.00
  HS02004870           JUNCTION     0.17     2.10    11.39     0  01:42        1.99
  HS02004876           JUNCTION     0.22     2.19    11.22     0  01:42        2.07
  HS02004881           JUNCTION     0.15     1.83    10.86     0  01:42        1.81
  HS02004901           JUNCTION     0.30     1.42    11.24     0  01:40        1.42
  WS02001211           JUNCTION     0.62     0.82     5.65     0  01:52        0.81
  WS02001212           JUNCTION     0.37     0.58     5.64     0  01:52        0.58
  WS02001213           JUNCTION     0.60     0.87     5.64     0  01:52        0.87
  WS02003059           JUNCTION     0.66     0.94     5.63     0  01:51        0.94
  WS02003060           JUNCTION     0.40     0.69     5.62     0  01:51        0.69
  WS02003066           JUNCTION     0.25     0.46     6.01     0  01:50        0.46
  WS02003067           JUNCTION     0.58     0.89     6.21     0  01:50        0.89
  WS02003069           JUNCTION     0.45     0.78     5.37     0  01:51        0.78
  WS02003072           JUNCTION     0.51     0.82     5.19     0  01:52        0.82
  WS02003073           JUNCTION     0.31     0.52     4.58     0  01:52        0.52
  WS02004138           JUNCTION     0.13     0.14     7.39     0  00:32        0.14
  WS02004139           JUNCTION     0.56     0.75     5.66     0  01:53        0.75
  WS02004401           JUNCTION     0.83     1.90     7.90     0  01:33        1.88
  WS02004402           JUNCTION     0.84     1.90     7.86     0  01:33        1.83
  WS02004403           JUNCTION     0.84     1.90     7.83     0  01:33        1.74
  WS02004404           JUNCTION     0.90     1.92     7.77     0  01:33        1.76
  WS02004405           JUNCTION     0.88     1.84     7.69     0  01:33        1.70
  WS02004406           JUNCTION     0.87     1.60     7.43     0  01:33        1.59
  WS02004407           JUNCTION     0.30     0.95     7.26     0  01:50        0.95
  WS02004409           JUNCTION     0.60     1.40     7.17     0  01:50        1.39
  WS02004410           JUNCTION     0.60     1.31     7.03     0  01:49        1.30
  WS02004411           JUNCTION     0.60     1.21     6.89     0  01:50        1.21
  WS02004412           JUNCTION     0.60     1.11     6.75     0  01:50        1.11
  WS02004413           JUNCTION     0.72     1.15     6.62     0  01:50        1.15
  WS02006109           JUNCTION     1.07     2.64     9.26     0  01:40        2.64
  WS02006110           JUNCTION     0.99     2.67     9.26     0  01:33        2.40
  WS02006111           JUNCTION     0.47     2.64     9.34     0  01:33        1.77
  WS02006112           JUNCTION     1.05     2.54     8.42     0  01:33        2.41
  WS02006113           JUNCTION     0.57     2.61     9.50     0  01:33        1.83
  WS02006115           JUNCTION     0.76     2.08     8.22     0  01:33        1.99
  WS02006116           JUNCTION     0.83     2.03     8.07     0  01:33        1.99
  WS02006228           JUNCTION     1.14     3.03     9.68     0  01:47        3.02
  WS02006229           JUNCTION     1.15     3.23     9.92     0  01:52        3.22
  WS02006230           JUNCTION     1.08     2.65     9.39     0  01:37        2.65
  WS02006231           JUNCTION     0.81     2.19     9.31     0  01:38        2.19
  WS02006232           JUNCTION     0.91     2.18     9.22     0  01:37        2.18
  WS02006234           JUNCTION     0.80     1.96     9.12     0  01:37        1.96
  WS02006235           JUNCTION     0.82     1.97     9.14     0  02:30        1.92
  WS02006238           JUNCTION     0.84     1.99     9.13     0  04:00        1.93
  WS02006239           JUNCTION     0.79     1.83     9.04     0  02:30        1.78
  WS02006240           JUNCTION     0.73     1.70     9.00     0  04:00        1.62
  WS02006242           JUNCTION     0.78     1.55     8.82     0  01:31        1.55
  WS02006243           JUNCTION     0.66     1.48     8.90     0  01:31        1.36
  WS02006245           JUNCTION     0.64     1.56     9.04     0  01:31        1.26
  WS02006247           JUNCTION     0.65     1.47     8.97     0  01:31        1.22
  WS02006248           JUNCTION     0.59     1.10     8.69     0  01:31        1.10
  WS02006249           JUNCTION     0.61     1.09     8.69     0  01:31        1.09
  WS02006251           JUNCTION     0.72     2.21     9.88     0  01:42        2.15
  WS02006252           JUNCTION     0.50     1.50     9.74     0  00:10        1.50
  WS02006253           JUNCTION     0.81     3.52    11.16     0  01:32        3.08
  WS02006256           JUNCTION     1.11     2.35     9.28     0  00:06        2.35
  WS02006280           JUNCTION     0.33     1.74    10.01     0  01:48        1.74
  WS02006284           JUNCTION     0.57     1.95    10.35     0  01:47        1.94
  WS02006287           JUNCTION     0.32     1.74    10.70     0  01:46        1.73
  WSF200               JUNCTION     0.26     0.53     5.76     0  01:50        0.52
  YS02001580           JUNCTION     0.11     1.05     9.59     0  01:40        0.77
  YS02001583           JUNCTION     0.14     1.08     9.57     0  01:40        0.82
  YS02001586           JUNCTION     0.23     1.13     9.30     0  01:40        1.13
  YS02001590           JUNCTION     0.33     1.37     9.23     0  01:40        1.37
  YS02001593           JUNCTION     0.26     1.30     9.16     0  01:40        1.28
  YS02001596           JUNCTION     0.35     1.67     9.08     0  01:40        1.65
  YS02001600           JUNCTION     0.42     1.87     9.00     0  01:40        1.86
  YS02001601           JUNCTION     0.61     2.06     8.90     0  01:39        2.06
  YS02001602           JUNCTION     0.52     1.87     8.77     0  01:40        1.87
  YS02001605           JUNCTION     0.49     1.78     8.68     0  01:40        1.77
  YS02001607           JUNCTION     0.47     1.65     8.49     0  01:59        1.64
  YS02001610           JUNCTION     0.51     1.68     8.48     0  01:40        1.68
  YS02001613           JUNCTION     0.48     1.67     8.51     0  01:40        1.65
  YS02001616           JUNCTION     0.41     1.60     8.51     0  01:49        1.60
  YS02001619           JUNCTION     0.39     1.59     8.52     0  01:48        1.58
  YS02001622           JUNCTION     0.38     1.57     8.47     0  01:49        1.56
  YS02001625           JUNCTION     0.62     1.78     8.38     0  01:41        1.78
  YS02001629           JUNCTION     0.51     1.85     8.40     0  01:39        1.85
  YS02001633           JUNCTION     0.58     2.00     8.45     0  01:44        1.99
  YS02001641           JUNCTION     0.55     1.95     8.38     0  01:44        1.93
  YS02001644           JUNCTION     0.55     1.92     8.35     0  01:44        1.92
  YS02001647           JUNCTION     0.35     1.78     8.39     0  01:44        1.72
  YS02001649           JUNCTION     0.41     1.99     8.38     0  01:45        1.92
  YS02001652           JUNCTION     0.30     1.89     8.49     0  01:45        1.75
  YS02001655           JUNCTION     0.23     1.89     8.74     0  01:44        1.53
  YS02001658           JUNCTION     0.15     1.88     9.02     0  01:44        1.29
  YS02001661           JUNCTION     0.15     1.48     8.88     0  01:45        1.06
  YS02001664           JUNCTION     0.06     0.58     8.50     0  01:45        0.53
  YS02001745           JUNCTION     0.07     0.78     8.29     0  01:44        0.76
  YS02001748           JUNCTION     0.14     1.78     8.86     0  01:44        1.18
  YS02001751           JUNCTION     0.19     1.73     8.61     0  01:44        1.36
  YS02001754           JUNCTION     0.27     1.81     8.42     0  01:44        1.61
  YS02001757           JUNCTION     0.44     2.03     8.29     0  01:44        1.95
  YS02001759           JUNCTION     0.38     1.98     8.34     0  01:44        1.94
  YS02001762           JUNCTION     0.37     1.99     8.39     0  01:44        1.92
  YS02001765           JUNCTION     0.35     1.97     8.42     0  01:44        1.89
  YS02001767           JUNCTION     0.34     1.93     8.42     0  01:44        1.88
  YS02001770           JUNCTION     0.35     1.95     8.44     0  01:44        1.90
  YS02001774           JUNCTION     0.41     2.00     8.42     0  01:44        1.96
  YS02001779           JUNCTION     0.25     1.68     8.37     0  01:43        1.68
  YS02001783           JUNCTION     0.26     1.40     7.54     0  02:27        1.23
  YS02001784           JUNCTION     0.27     1.34     7.41     0  02:27        1.12
  YS02001786           JUNCTION     0.23     1.26     7.29     0  02:27        0.92
  YS02001788           JUNCTION     0.16     1.16     7.13     0  02:27        0.88
  YS02001790           JUNCTION     0.19     1.46     7.11     0  02:27        1.36
  YS02001791           JUNCTION     0.13     1.42     6.89     0  02:26        1.28
  YS02001793           JUNCTION     0.09     1.84     6.67     0  02:27        1.78
  YS02001882           JUNCTION     0.32     1.70     8.42     0  01:42        1.64
  YS02001884           JUNCTION     0.40     1.79     8.41     0  01:42        1.73
  YS02001887           JUNCTION     0.48     1.84     8.38     0  01:42        1.82
  YS02001890           JUNCTION     0.51     1.81     8.32     0  01:42        1.81
  YS02001895           JUNCTION     0.29     1.57     8.31     0  01:45        1.56
  YS02001898           JUNCTION     0.30     1.57     8.30     0  01:42        1.56
  YS02001901           JUNCTION     0.40     1.68     8.29     0  01:42        1.67
  YS02001904           JUNCTION     0.38     1.65     8.28     0  01:42        1.63
  YS02001907           JUNCTION     0.68     1.96     8.25     0  01:42        1.96
  YS02001910           JUNCTION     0.50     1.98     8.49     0  01:43        1.87
  YS02001915           JUNCTION     0.33     1.97     8.69     0  01:42        1.79
  YS02001918           JUNCTION     0.18     1.81     8.88     0  01:42        1.46
  YS02001920           JUNCTION     0.26     2.14     9.15     0  01:43        1.53
  YS02001923           JUNCTION     0.14     2.03     9.29     0  01:43        1.30
  YS02001926           JUNCTION     0.17     1.90     9.35     0  01:43        1.13
  YS02001929           JUNCTION     0.10     1.78     9.47     0  01:43        0.89
  YS02006553           JUNCTION     0.68     1.98     8.26     0  01:45        1.97
  YS02006556           JUNCTION     0.66     1.95     8.26     0  01:46        1.95
  YS02006558           JUNCTION     0.70     2.00     8.26     0  01:49        1.99
  YS02006561           JUNCTION     0.16     0.95     7.61     0  01:42        0.89
  YS02163301           JUNCTION     0.53     1.91     8.43     0  01:44        1.90
  YS02163601           JUNCTION     0.61     2.02     8.42     0  01:44        2.01
  YS02164001           JUNCTION     0.54     1.95     8.40     0  01:44        1.93
  YSB1154              JUNCTION     0.45     1.94    10.99     0  01:49        1.93
  YSB1171              JUNCTION     0.59     1.95    10.85     0  01:41        1.95
  YSB1174              JUNCTION     0.41     1.80    10.91     0  01:48        1.80
  YSB6556              JUNCTION     0.36     1.75    10.92     0  01:50        1.75
  CC-1                 OUTFALL      0.00     0.00     0.00     0  00:00        0.00
  CC-2                 OUTFALL      0.00     0.00     0.00     0  00:00        0.00
  JK-1                 OUTFALL      0.00     0.00     0.00     0  00:00        0.00
  JK-2                 OUTFALL      0.00     0.00     0.00     0  00:00        0.00
  WSC                  OUTFALL      0.31     0.52     1.19     0  01:53        0.52
  CC-storage           STORAGE      0.63     1.80     7.30     0  03:00        1.80
  JK-storage           STORAGE      0.31     5.80     6.60     0  02:27        5.80
  XR-storage           STORAGE      7.68     8.66     6.66     0  06:00        8.66
  
  
  *******************
  Node Inflow Summary
  *******************
  
  -------------------------------------------------------------------------------------------------
                                  Maximum  Maximum                  Lateral       Total        Flow
                                  Lateral    Total  Time of Max      Inflow      Inflow     Balance
                                   Inflow   Inflow   Occurrence      Volume      Volume       Error
  Node                 Type           LPS      LPS  days hr:min    10^6 ltr    10^6 ltr     Percent
  -------------------------------------------------------------------------------------------------
  HS02004478           JUNCTION      0.00  2304.33     0  01:47           0        10.2      -0.007
  HS02004479           JUNCTION      0.00   493.98     0  01:42           0        1.01       0.094
  HS02004480           JUNCTION      0.00  2147.69     0  01:41           0        7.64       0.032
  HS02004770           JUNCTION   1674.32  1674.32     0  01:50        3.37        3.63       0.085
  HS02004777           JUNCTION      0.03   750.64     0  01:40    0.000648        2.19       0.249
  HS02004785           JUNCTION      0.15   758.11     0  01:40     0.00324        2.18       0.045
  HS02004788           JUNCTION    612.48   875.85     0  01:40        1.27        3.45       0.007
  HS02004792           JUNCTION   2034.11  2864.74     0  01:50        4.38        7.84       0.004
  HS02004799           JUNCTION    386.98  1747.53     0  01:41       0.719        6.92       0.046
  HS02004802           JUNCTION      0.00  1233.06     0  01:53           0        2.76       0.149
  HS02004807           JUNCTION    480.00  1649.59     0  01:50        0.88         2.9       0.146
  HS02004817           JUNCTION      0.60  1171.50     0  01:50       0.013        2.08       0.802
  HS02004824           JUNCTION    647.35  1170.46     0  01:50        1.56        2.34       0.029
  HS02004830           JUNCTION      0.15   686.36     0  01:41     0.00324        1.06       0.082
  HS02004837           JUNCTION    447.38   905.16     0  01:41       0.972        1.47       0.047
  HS02004842           JUNCTION      0.00   898.34     0  01:41           0       0.915       1.444
  HS02004848           JUNCTION    586.77  1132.44     0  01:41        1.55        2.28      -0.012
  HS02004852           JUNCTION      0.00  1139.02     0  01:42           0        2.12      -0.001
  HS02004856           JUNCTION    196.27  1263.45     0  01:42       0.363        2.48       0.020
  HS02004862           JUNCTION    272.35  1317.12     0  01:42       0.653        3.13      -0.002
  HS02004870           JUNCTION    261.91  1424.19     0  01:42       0.483        3.61       0.004
  HS02004876           JUNCTION    260.64  1503.12     0  01:50         0.5        4.11       0.022
  HS02004881           JUNCTION    140.77  1643.47     0  01:50       0.255        4.36       0.017
  HS02004901           JUNCTION    400.42   662.57     0  01:50       0.751        1.21       0.161
  WS02001211           JUNCTION      7.35   238.38     0  01:39       0.159        4.02       0.827
  WS02001212           JUNCTION      0.00   209.88     0  01:42           0        3.98       0.394
  WS02001213           JUNCTION      0.00   213.56     0  01:42           0        3.97       0.455
  WS02003059           JUNCTION      0.00   213.63     0  03:23           0        3.96       0.817
  WS02003060           JUNCTION     16.53  1520.35     0  01:50       0.357        14.6       0.105
  WS02003066           JUNCTION      0.00  1316.21     0  01:50           0        10.3       0.018
  WS02003067           JUNCTION      0.00  1315.84     0  01:50           0        10.3       0.046
  WS02003069           JUNCTION      0.32  1519.71     0  01:51     0.00691        14.6       0.112
  WS02003072           JUNCTION      0.00  1519.38     0  01:51           0        14.6       0.149
  WS02003073           JUNCTION      1.82  1521.36     0  01:52      0.0393        14.6       0.156
  WS02004138           JUNCTION      0.00   190.00     0  00:29           0        3.88       0.076
  WS02004139           JUNCTION      0.32   190.32     0  00:32     0.00693        3.89       0.688
  WS02004401           JUNCTION      0.00  1316.78     0  01:49           0        10.4       0.109
  WS02004402           JUNCTION      0.00  1316.98     0  01:50           0        10.4       0.109
  WS02004403           JUNCTION      0.00  1317.03     0  01:50           0        10.4       0.107
  WS02004404           JUNCTION      0.16  1317.43     0  01:50      0.0035        10.4       0.089
  WS02004405           JUNCTION      0.04  1317.40     0  01:50    0.000823        10.4       0.125
  WS02004406           JUNCTION      0.00  1317.27     0  01:50           0        10.4       0.216
  WS02004407           JUNCTION      0.00  1317.19     0  01:50           0        10.4       0.020
  WS02004409           JUNCTION      0.00  1315.85     0  01:50           0        10.4       0.038
  WS02004410           JUNCTION      0.00  1315.89     0  01:50           0        10.3       0.055
  WS02004411           JUNCTION      0.00  1315.85     0  01:50           0        10.3       0.069
  WS02004412           JUNCTION      0.00  1315.92     0  01:50           0        10.3       0.086
  WS02004413           JUNCTION      0.00  1315.89     0  01:50           0        10.3       0.150
  WS02006109           JUNCTION      1.23  1288.96     0  01:52      0.0266        10.2       0.069
  WS02006110           JUNCTION      0.00  1124.01     0  02:15           0        9.86       0.100
  WS02006111           JUNCTION      0.00  1124.07     0  02:15           0        9.85       0.004
  WS02006112           JUNCTION    326.39  1316.71     0  01:49       0.616        10.5       0.204
  WS02006113           JUNCTION      0.00  1124.05     0  02:15           0        9.85       0.028
  WS02006115           JUNCTION      0.00  1316.91     0  01:50           0        10.4       0.080
  WS02006116           JUNCTION      0.00  1317.00     0  01:50           0        10.4       0.039
  WS02006228           JUNCTION      0.00  1288.08     0  01:47           0        10.2       0.034
  WS02006229           JUNCTION      0.00  2304.56     0  01:47           0        13.3       0.057
  WS02006230           JUNCTION     10.28  1026.33     0  01:47       0.222        6.21       0.128
  WS02006231           JUNCTION      0.00   532.90     0  04:00           0        4.72      -0.031
  WS02006232           JUNCTION      0.00   528.17     0  04:00           0        4.71       0.155
  WS02006234           JUNCTION      0.00   523.10     0  04:00           0         4.7      -0.033
  WS02006235           JUNCTION      0.00   514.85     0  04:00           0        4.61       0.106
  WS02006238           JUNCTION      0.00   415.69     0  02:10           0        4.22      -0.118
  WS02006239           JUNCTION      0.00   415.07     0  02:32           0        4.21      -0.162
  WS02006240           JUNCTION      0.00   415.06     0  02:32           0         4.2       0.073
  WS02006242           JUNCTION      0.00   414.97     0  02:10           0         4.2       0.094
  WS02006243           JUNCTION      0.00   399.93     0  03:40           0        3.71      -0.207
  WS02006245           JUNCTION      0.00   399.46     0  03:40           0        3.72       0.202
  WS02006247           JUNCTION      0.00   479.82     0  01:31           0        3.72       0.021
  WS02006248           JUNCTION      0.00   563.57     0  01:31           0        4.07       0.013
  WS02006249           JUNCTION      0.00  1372.26     0  01:50           0        7.35       0.053
  WS02006251           JUNCTION      0.08  1679.15     0  01:50     0.00166        7.56       0.006
  WS02006252           JUNCTION      0.00   507.02     0  01:50           0        3.52      -0.041
  WS02006253           JUNCTION     35.14  1679.25     0  01:50      0.0615        4.46      -0.017
  WS02006256           JUNCTION      0.00   300.00     0  01:10           0       0.936      -0.050
  WS02006280           JUNCTION      0.00  2304.00     0  01:47           0        10.2       0.015
  WS02006284           JUNCTION      0.10  2304.01     0  01:47     0.00207        10.2      -0.001
  WS02006287           JUNCTION      0.00  2304.81     0  01:52           0        10.2       0.009
  WSF200               JUNCTION      0.00  1316.35     0  01:50           0        10.3       0.009
  YS02001580           JUNCTION      0.00   129.29     0  01:40           0     0.00436      -1.436
  YS02001583           JUNCTION      0.00   154.40     0  01:39           0      0.0153      -4.748
  YS02001586           JUNCTION    738.75   738.75     0  01:50        2.06        2.07       0.066
  YS02001590           JUNCTION      0.00   318.07     0  02:05           0        1.57      -0.017
  YS02001593           JUNCTION      0.00   318.07     0  01:44           0        1.57       0.004
  YS02001596           JUNCTION      0.00   318.03     0  02:05           0        1.57      -0.009
  YS02001600           JUNCTION      0.00   318.05     0  01:44           0        1.57      -0.000
  YS02001601           JUNCTION   1341.12  1658.72     0  01:50        2.81        4.38       0.023
  YS02001602           JUNCTION      0.00   522.54     0  01:39           0        2.57       0.026
  YS02001605           JUNCTION      0.00   523.19     0  01:39           0        2.43       0.031
  YS02001607           JUNCTION      0.00   523.80     0  01:39           0        2.43       0.105
  YS02001610           JUNCTION      0.00   712.98     0  01:50           0        2.72       0.097
  YS02001613           JUNCTION      0.00   531.82     0  01:39           0        2.13       0.093
  YS02001616           JUNCTION      0.00   536.61     0  01:39           0        2.13       0.041
  YS02001619           JUNCTION   1318.73  1318.73     0  01:50        3.31        5.14       0.005
  YS02001622           JUNCTION      0.00   946.68     0  01:50           0        4.85       0.011
  YS02001625           JUNCTION      0.00  1349.61     0  01:50           0        5.08       0.230
  YS02001629           JUNCTION      0.00   929.00     0  01:41           0        4.05      -0.019
  YS02001633           JUNCTION   1006.30  1398.74     0  01:41        2.06        5.85       0.065
  YS02001641           JUNCTION      0.00  1392.20     0  01:41           0         5.6       0.056
  YS02001644           JUNCTION    896.66  1826.10     0  01:42        1.79        7.38       0.048
  YS02001647           JUNCTION      0.00  1830.24     0  01:42           0        7.01       0.008
  YS02001649           JUNCTION      0.00  2068.48     0  01:41           0        8.66       0.002
  YS02001652           JUNCTION      0.00   869.90     0  01:50           0        1.64      -0.084
  YS02001655           JUNCTION      0.15   869.83     0  01:50     0.00332        1.64      -0.009
  YS02001658           JUNCTION      0.00   869.32     0  01:50           0        1.64      -0.006
  YS02001661           JUNCTION      0.00   859.99     0  01:49           0        1.64      -0.008
  YS02001664           JUNCTION    861.15   861.15     0  01:50        1.64        1.64      -0.002
  YS02001745           JUNCTION    543.17   543.17     0  01:50       0.987       0.988       0.184
  YS02001748           JUNCTION      0.04   591.35     0  01:44    0.000972       0.987      -0.300
  YS02001751           JUNCTION      0.01   552.60     0  01:50    0.000238       0.995       0.084
  YS02001754           JUNCTION      0.26   553.09     0  01:50     0.00562        1.01      -0.148
  YS02001757           JUNCTION      0.00  3435.01     0  01:55           0          13       0.016
  YS02001759           JUNCTION    753.63  1374.06     0  01:50        1.37        3.29      -0.007
  YS02001762           JUNCTION      0.00   820.46     0  01:55           0        1.93      -0.008
  YS02001765           JUNCTION      0.00   819.46     0  01:55           0        1.93       0.000
  YS02001767           JUNCTION      0.54   818.74     0  01:55      0.0116        1.93      -0.001
  YS02001770           JUNCTION   1085.53  1085.53     0  01:50        2.08        2.12       0.004
  YS02001774           JUNCTION      0.00   465.92     0  01:50           0       0.224       0.425
  YS02001779           JUNCTION      0.01   466.44     0  01:50    0.000108       0.179      -0.531
  YS02001783           JUNCTION      0.00  1161.73     0  01:48           0        4.76      -0.002
  YS02001784           JUNCTION      1.06  1162.96     0  01:48      0.0229        4.78       0.011
  YS02001786           JUNCTION      0.06  1162.75     0  01:48     0.00122        4.78       0.012
  YS02001788           JUNCTION      0.07  1162.68     0  01:48     0.00153        4.78       0.007
  YS02001790           JUNCTION      0.15  1174.68     0  01:48     0.00335        4.79      -0.004
  YS02001791           JUNCTION      0.00  1292.47     0  01:50           0        4.79      -0.028
  YS02001793           JUNCTION      0.00  1282.09     0  02:31           0        4.79      -0.030
  YS02001882           JUNCTION      0.00    56.26     0  01:41           0      0.0149       3.852
  YS02001884           JUNCTION      0.00    77.89     0  01:41           0      0.0516       5.761
  YS02001887           JUNCTION    793.57   793.57     0  01:50        1.42        1.45       0.320
  YS02001890           JUNCTION      0.00   793.77     0  01:50           0        1.41       0.374
  YS02001895           JUNCTION      0.00   517.30     0  01:55           0         1.3       0.148
  YS02001898           JUNCTION      0.00   517.54     0  01:55           0         1.3       0.002
  YS02001901           JUNCTION      0.00   517.44     0  01:52           0         1.3       0.262
  YS02001904           JUNCTION      0.00   517.40     0  01:55           0        1.31       0.232
  YS02001907           JUNCTION      0.00  1959.33     0  01:50           0        4.37       0.415
  YS02001910           JUNCTION      0.00  1442.40     0  01:50           0        3.07       0.239
  YS02001915           JUNCTION    972.70  1442.58     0  01:50        1.98        3.12       0.055
  YS02001918           JUNCTION      0.00   485.58     0  01:42           0        1.18      -0.011
  YS02001920           JUNCTION      2.87   480.03     0  01:50       0.062        1.16       0.067
  YS02001923           JUNCTION      0.04   476.70     0  01:50    0.000814        1.08      -0.073
  YS02001926           JUNCTION      0.05   756.11     0  01:43     0.00113        1.06      -0.011
  YS02001929           JUNCTION    473.46   620.68     0  01:42        1.04        1.04      -0.016
  YS02006553           JUNCTION      0.00   792.03     0  02:12           0        2.74       0.441
  YS02006556           JUNCTION      0.00   792.47     0  02:12           0        2.75       0.304
  YS02006558           JUNCTION   1105.28  1162.51     0  01:48        2.08        4.79       0.081
  YS02006561           JUNCTION      0.00  1161.86     0  01:48           0        4.76      -0.005
  YS02163301           JUNCTION      0.00   927.13     0  01:41           0        4.04       0.039
  YS02163601           JUNCTION      0.11  1397.41     0  01:41     0.00238        5.59       0.094
  YS02164001           JUNCTION      0.00  1394.86     0  01:41           0        5.59       0.041
  YSB1154              JUNCTION    448.06   448.06     0  01:50       0.859       0.859       0.175
  YSB1171              JUNCTION      0.00  1056.97     0  01:50           0        1.67       0.381
  YSB1174              JUNCTION    372.43   372.43     0  01:50       0.656       0.656       0.197
  YSB6556              JUNCTION      0.00   448.22     0  01:50           0        0.86       0.148
  CC-1                 OUTFALL       0.00   683.00     0  00:00           0        7.66       0.000
  CC-2                 OUTFALL       0.00   683.00     0  00:00           0        4.63       0.000
  JK-1                 OUTFALL       0.00  1000.00     0  00:00           0         3.6       0.000
  JK-2                 OUTFALL       0.00  1000.00     0  00:00           0        2.01       0.000
  WSC                  OUTFALL       0.00  1521.47     0  01:53           0        14.5       0.000
  CC-storage           STORAGE       0.00  3434.32     0  01:55           0        15.2      -2.977
  JK-storage           STORAGE       0.00  1648.15     0  02:31           0        4.94     -25.838
  XR-storage           STORAGE     200.00   200.00     0  00:00        4.32        4.92       0.001
  
  
  **********************
  Node Surcharge Summary
  **********************
  
  Surcharging occurs when water rises above the top of the highest conduit.
  ---------------------------------------------------------------------
                                               Max. Height   Min. Depth
                                   Hours       Above Crown    Below Rim
  Node                 Type      Surcharged         Meters       Meters
  ---------------------------------------------------------------------
  HS02004478           JUNCTION        0.67          0.665        0.275
  HS02004479           JUNCTION        0.81          0.886        0.164
  HS02004480           JUNCTION        0.86          0.956        0.144
  HS02004770           JUNCTION        0.75          0.720        0.000
  HS02004777           JUNCTION        0.76          0.780        0.000
  HS02004785           JUNCTION        0.70          0.759        0.031
  HS02004788           JUNCTION        0.69          0.720        0.000
  HS02004792           JUNCTION        0.83          0.900        0.000
  HS02004799           JUNCTION        0.96          1.060        0.000
  HS02004802           JUNCTION        0.87          1.092        0.118
  HS02004807           JUNCTION        0.85          1.220        0.000
  HS02004817           JUNCTION        1.56          1.709        0.031
  HS02004824           JUNCTION        0.69          1.310        0.000
  HS02004830           JUNCTION        0.66          1.287        0.043
  HS02004837           JUNCTION        0.61          1.235        0.105
  HS02004842           JUNCTION        0.76          1.520        0.000
  HS02004848           JUNCTION        0.58          1.370        0.000
  HS02004852           JUNCTION        0.61          1.420        0.000
  HS02004856           JUNCTION        0.58          1.300        0.000
  HS02004862           JUNCTION        0.62          1.300        0.000
  HS02004870           JUNCTION        0.63          1.400        0.000
  HS02004876           JUNCTION        0.70          1.488        0.072
  HS02004881           JUNCTION        0.67          1.132        0.318
  HS02004901           JUNCTION        0.76          0.720        0.000
  WS02004401           JUNCTION        1.78          0.898        0.762
  WS02004402           JUNCTION        1.80          0.900        0.840
  WS02004403           JUNCTION        1.81          0.902        1.128
  WS02004404           JUNCTION        2.04          0.919        1.861
  WS02004405           JUNCTION        2.00          0.838        1.962
  WS02004406           JUNCTION        1.96          0.604        1.846
  WS02004409           JUNCTION        1.26          0.400        1.960
  WS02004410           JUNCTION        1.17          0.309        2.231
  WS02004411           JUNCTION        1.11          0.212        2.318
  WS02004412           JUNCTION        1.01          0.111        2.199
  WS02004413           JUNCTION        1.58          0.148        2.052
  WS02006109           JUNCTION        2.59          1.820        0.000
  WS02006110           JUNCTION        2.20          1.763        0.087
  WS02006111           JUNCTION        1.54          1.828        0.042
  WS02006112           JUNCTION        2.23          1.539        0.141
  WS02006113           JUNCTION        1.56          1.809        0.121
  WS02006115           JUNCTION        1.71          1.067        1.183
  WS02006116           JUNCTION        1.73          0.968        1.322
  WS02006228           JUNCTION        2.56          2.200        0.000
  WS02006229           JUNCTION        1.15          1.045        0.025
  WS02006230           JUNCTION        2.16          1.570        0.000
  WS02006231           JUNCTION        2.17          1.479        0.051
  WS02006232           JUNCTION        2.57          1.480        0.000
  WS02006234           JUNCTION        2.19          1.240        0.000
  WS02006235           JUNCTION        2.24          1.262        0.028
  WS02006238           JUNCTION        2.36          1.269        0.161
  WS02006239           JUNCTION        2.22          1.091        0.199
  WS02006240           JUNCTION        2.23          0.993        0.397
  WS02006242           JUNCTION        2.57          0.820        0.000
  WS02006243           JUNCTION        2.26          0.770        0.000
  WS02006245           JUNCTION        2.26          0.850        0.000
  WS02006247           JUNCTION        2.32          0.760        0.000
  WS02006248           JUNCTION        2.22          0.380        0.000
  WS02006249           JUNCTION        2.29          0.390        0.000
  WS02006251           JUNCTION        2.05          1.180        0.000
  WS02006252           JUNCTION        2.81          1.100        0.000
  WS02006253           JUNCTION        2.06          2.480        0.000
  WS02006256           JUNCTION        5.61          2.050        0.000
  WS02006280           JUNCTION        1.00          0.694        0.086
  WS02006284           JUNCTION        0.89          0.668        0.132
  WS02006287           JUNCTION        0.78          0.742        0.148
  YS02001580           JUNCTION        0.82          0.450        0.000
  YS02001583           JUNCTION        0.83          0.436        0.064
  YS02001586           JUNCTION        1.01          0.510        0.000
  YS02001590           JUNCTION        1.11          0.724        0.026
  YS02001593           JUNCTION        1.11          0.683        0.157
  YS02001596           JUNCTION        1.25          0.935        0.135
  YS02001600           JUNCTION        1.47          1.190        0.000
  YS02001601           JUNCTION        1.73          1.440        0.000
  YS02001602           JUNCTION        1.65          1.270        0.000
  YS02001605           JUNCTION        1.62          1.180        0.000
  YS02001607           JUNCTION        1.14          0.646        0.034
  YS02001610           JUNCTION        1.18          0.680        0.000
  YS02001613           JUNCTION        1.14          0.666        0.034
  YS02001616           JUNCTION        1.08          0.601        0.009
  YS02001619           JUNCTION        1.06          0.590        0.020
  YS02001622           JUNCTION        1.06          0.567        0.053
  YS02001625           JUNCTION        1.34          0.780        0.000
  YS02001629           JUNCTION        0.99          0.470        0.000
  YS02001633           JUNCTION        1.44          0.978        0.082
  YS02001641           JUNCTION        1.41          0.946        0.154
  YS02001644           JUNCTION        1.39          0.920        0.000
  YS02001647           JUNCTION        1.03          0.778        0.122
  YS02001649           JUNCTION        1.35          0.988        0.062
  YS02001652           JUNCTION        0.89          0.864        0.266
  YS02001655           JUNCTION        0.33          0.890        0.310
  YS02001658           JUNCTION        0.22          0.878        0.422
  YS02001661           JUNCTION        0.01          0.405        0.985
  YS02001748           JUNCTION        0.12          0.702        0.488
  YS02001751           JUNCTION        0.24          0.729        0.471
  YS02001754           JUNCTION        0.34          0.762        0.388
  YS02001757           JUNCTION        1.44          1.032        0.178
  YS02001759           JUNCTION        1.35          0.979        0.231
  YS02001762           JUNCTION        1.30          0.992        0.158
  YS02001765           JUNCTION        1.13          0.965        0.135
  YS02001767           JUNCTION        1.07          0.928        0.102
  YS02001770           JUNCTION        1.01          0.920        0.000
  YS02001774           JUNCTION        1.23          1.000        0.050
  YS02001779           JUNCTION        0.37          0.680        0.000
  YS02001783           JUNCTION        0.75          0.600        1.000
  YS02001784           JUNCTION        0.73          0.543        0.947
  YS02001786           JUNCTION        0.60          0.458        0.972
  YS02001788           JUNCTION        0.04          0.356        1.124
  YS02001790           JUNCTION        0.06          0.661        0.496
  YS02001791           JUNCTION        0.07          0.619        1.301
  YS02001793           JUNCTION        0.08          0.843        1.757
  YS02001882           JUNCTION        0.63          0.705        0.125
  YS02001884           JUNCTION        0.65          0.730        0.140
  YS02001887           JUNCTION        0.69          0.789        0.161
  YS02001890           JUNCTION        0.71          0.760        0.000
  YS02001895           JUNCTION        0.62          0.567        0.183
  YS02001898           JUNCTION        0.62          0.538        0.202
  YS02001901           JUNCTION        0.67          0.682        0.188
  YS02001904           JUNCTION        0.66          0.645        0.205
  YS02001907           JUNCTION        0.96          0.950        0.000
  YS02001910           JUNCTION        0.74          0.984        0.116
  YS02001915           JUNCTION        0.63          0.970        0.030
  YS02001918           JUNCTION        0.54          0.810        0.000
  YS02001920           JUNCTION        0.55          1.140        0.000
  YS02001923           JUNCTION        0.14          0.820        0.000
  YS02001926           JUNCTION        0.18          0.900        0.000
  YS02001929           JUNCTION        0.01          0.780        0.000
  YS02006553           JUNCTION        0.98          0.977        0.213
  YS02006556           JUNCTION        0.85          0.911        0.439
  YS02006558           JUNCTION        0.84          0.897        0.503
  YS02006561           JUNCTION        0.50          0.153        0.997
  YS02163301           JUNCTION        1.41          0.909        0.121
  YS02163601           JUNCTION        1.48          1.024        0.056
  YS02164001           JUNCTION        1.41          0.945        0.155
  YSB1154              JUNCTION        1.13          1.236        0.164
  YSB1171              JUNCTION        1.14          1.100        0.000
  YSB1174              JUNCTION        1.01          1.099        0.151
  YSB6556              JUNCTION        0.93          1.051        0.049
  
  
  *********************
  Node Flooding Summary
  *********************
  
  Flooding refers to all water that overflows a node, whether it ponds or not.
  --------------------------------------------------------------------------
                                                             Total   Maximum
                                 Maximum   Time of Max       Flood    Ponded
                        Hours       Rate    Occurrence      Volume     Depth
  Node                 Flooded       LPS   days hr:min    10^6 ltr    Meters
  --------------------------------------------------------------------------
  HS02004770              0.49   1193.88      0  01:50       0.991     0.000
  HS02004777              0.01     34.36      0  01:40       0.000     0.000
  HS02004788              0.01    266.66      0  01:40       0.001     0.000
  HS02004792              0.52   1722.03      0  01:50       1.630     0.000
  HS02004799              0.26    224.63      0  01:50       0.128     0.000
  HS02004807              0.14    417.47      0  01:50       0.098     0.000
  HS02004824              0.01      1.39      0  01:50       0.000     0.000
  HS02004842              0.01     77.19      0  01:43       0.001     0.000
  HS02004848              0.01     82.32      0  01:42       0.000     0.000
  HS02004852              0.01     75.71      0  01:42       0.000     0.000
  HS02004856              0.01    268.23      0  01:42       0.001     0.000
  HS02004862              0.01    236.91      0  01:42       0.001     0.000
  HS02004870              0.01     72.77      0  01:42       0.000     0.000
  HS02004901              0.60    662.43      0  01:50       0.943     0.000
  WS02006109              0.58    297.68      0  01:50       0.354     0.000
  WS02006228              0.01      1.01      0  01:47       0.000     0.000
  WS02006230              0.90    573.63      0  01:47       1.290     0.000
  WS02006232              0.20      0.76      0  02:25       0.000     0.000
  WS02006234              0.98    128.25      0  02:19       0.239     0.000
  WS02006242              1.12    137.35      0  02:35       0.477     0.000
  WS02006243              0.01    253.67      0  01:31       0.001     0.000
  WS02006245              0.01    226.05      0  01:31       0.001     0.000
  WS02006247              0.01    171.00      0  01:31       0.000     0.000
  WS02006248              1.53    351.09      0  01:37       1.574     0.000
  WS02006249              2.04   1311.15      0  01:50       4.495     0.000
  WS02006251              0.01     54.38      0  01:42       0.000     0.000
  WS02006252              0.46    507.01      0  01:50       0.433     0.000
  WS02006253              0.01    275.04      0  01:32       0.000     0.000
  WS02006256              0.71    283.90      0  02:10       0.408     0.000
  YS02001580              0.01    111.91      0  01:40       0.000     0.000
  YS02001586              0.66    421.11      0  01:50       0.492     0.000
  YS02001600              0.01      0.81      0  01:40       0.000     0.000
  YS02001601              0.92   1260.68      0  01:50       1.811     0.000
  YS02001602              0.72     61.97      0  02:00       0.142     0.000
  YS02001605              0.01      1.04      0  01:40       0.000     0.000
  YS02001610              0.60    712.83      0  01:50       0.881     0.000
  YS02001625              0.50   1349.59      0  01:50       1.269     0.000
  YS02001629              0.12    146.45      0  01:39       0.029     0.000
  YS02001644              0.20    837.38      0  01:50       0.354     0.000
  YS02001770              0.01      5.89      0  01:44       0.000     0.000
  YS02001779              0.19    466.41      0  01:50       0.159     0.000
  YS02001890              0.22    277.20      0  01:50       0.106     0.000
  YS02001907              0.47   1904.80      0  01:50       1.630     0.000
  YS02001918              0.01    264.66      0  01:43       0.003     0.000
  YS02001920              0.01     39.57      0  01:43       0.000     0.000
  YS02001923              0.01    328.09      0  01:43       0.001     0.000
  YS02001926              0.01    117.33      0  01:43       0.001     0.000
  YS02001929              0.01    143.80      0  01:43       0.000     0.000
  YSB1171                 0.38   1056.65      0  01:50       0.816     0.000
  JK-storage              0.05    698.69      0  02:28       0.113     0.000
  
  
  **********************
  Storage Volume Summary
  **********************
  
  --------------------------------------------------------------------------------------------------
                         Average     Avg  Evap Exfil       Maximum     Max    Time of Max    Maximum
                          Volume    Pcnt  Pcnt  Pcnt        Volume    Pcnt     Occurrence    Outflow
  Storage Unit           1000 m3    Full  Loss  Loss       1000 m3    Full    days hr:min        LPS
  --------------------------------------------------------------------------------------------------
  CC-storage               1.756      27     0     0         5.010      78       0  03:00    1766.00
  JK-storage               0.016       5     0     0         0.291     100       0  02:27    2300.00
  XR-storage               0.922      64     0     0         1.039      72       0  06:00     190.00
  
  
  ***********************
  Outfall Loading Summary
  ***********************
  
  -----------------------------------------------------------
                         Flow       Avg       Max       Total
                         Freq      Flow      Flow      Volume
  Outfall Node           Pcnt       LPS       LPS    10^6 ltr
  -----------------------------------------------------------
  CC-1                  72.81    522.20    683.00       7.658
  CC-2                  45.22    556.51    683.00       4.631
  JK-1                  73.00    226.75   1000.00       3.604
  JK-2                  38.63    268.10   1000.00       2.008
  WSC                   99.97    679.12   1521.47      14.549
  -----------------------------------------------------------
  System                65.93   2252.68   4869.19      32.451
  
  
  ********************
  Link Flow Summary
  ********************
  
  -----------------------------------------------------------------------------
                                 Maximum  Time of Max   Maximum    Max/    Max/
                                  |Flow|   Occurrence   |Veloc|    Full    Full
  Link                 Type          LPS  days hr:min     m/sec    Flow   Depth
  -----------------------------------------------------------------------------
  1                    CONDUIT   1521.47     0  01:53      3.71    0.53    0.52
  HS02004478WS02006287 CONDUIT   2304.81     0  01:52      2.59    0.65    1.00
  HS02004479HS02004480 CONDUIT    495.50     0  01:42      0.71    0.48    1.00
  HS02004480HS02004478 CONDUIT   2147.34     0  01:41      3.07    9.04    1.00
  HS02004770HS02004777 CONDUIT    750.61     0  01:40      1.07    1.37    1.00
  HS02004777HS02004785 CONDUIT    757.96     0  01:40      1.09    0.93    1.00
  HS02004785HS02004788 CONDUIT    653.39     0  01:40      1.36    4.93    1.00
  HS02004788HS02004792 CONDUIT    830.64     0  01:50      1.44    0.55    1.00
  HS02004792HS02004799 CONDUIT   1561.45     0  01:41      2.23    0.96    1.00
  HS02004799HS02004480 CONDUIT   1746.50     0  01:41      2.49    2.21    1.00
  HS02004802HS02004478 CONDUIT   1233.47     0  01:51      1.76    1.09    1.00
  HS02004807HS02004802 CONDUIT   1233.06     0  01:53      1.76    2.35    1.00
  HS02004817HS02004807 CONDUIT   1171.76     0  01:50      1.67    0.69    1.00
  HS02004817HS02004824 CONDUIT   1170.90     0  01:50      1.67    0.53    1.00
  HS02004824HS02004830 CONDUIT    686.21     0  01:41      0.98    0.90    1.00
  HS02004830HS02004837 CONDUIT    698.34     0  01:41      1.08    0.70    1.00
  HS02004837HS02004842 CONDUIT    898.34     0  01:41      1.28    0.54    1.00
  HS02004842HS02004848 CONDUIT    896.49     0  01:41      1.43    0.52    1.00
  HS02004848HS02004852 CONDUIT   1139.02     0  01:42      1.66    1.28    1.00
  HS02004852HS02004856 CONDUIT   1151.86     0  01:42      1.65    1.32    1.00
  HS02004856HS02004862 CONDUIT   1179.58     0  01:42      1.73    1.18    1.00
  HS02004862HS02004870 CONDUIT   1268.44     0  01:42      1.92    1.37    1.00
  HS02004870HS02004876 CONDUIT   1242.64     0  01:50      1.79    0.82    1.00
  HS02004876HS02004881 CONDUIT   1503.12     0  01:50      2.43   15.99    1.00
  HS02004881HS02006253 CONDUIT   1644.26     0  01:50      2.77    0.32    1.00
  HS02004901HS02004770 CONDUIT    265.79     0  02:10      0.38    1.00    1.00
  WS02001211WS02001212 CONDUIT    209.88     0  01:42      0.54    0.16    0.70
  WS02001212WS02001213 CONDUIT    213.56     0  01:42      1.04    0.33    0.56
  WS02001213WS02003059 CONDUIT    213.63     0  03:23      0.47    0.35    0.90
  WS02003059WS02003060 CONDUIT    219.29     0  03:23      0.65    0.14    0.82
  WS02003060WS02003069 CONDUIT   1519.39     0  01:51      2.09    0.59    0.61
  WS02003066WSF200     CONDUIT   1316.35     0  01:50      3.39    0.22    0.39
  WS02003067WS02003066 CONDUIT   1316.21     0  01:50      2.01    0.42    0.56
  WS02003069WS02003072 CONDUIT   1519.38     0  01:51      1.90    0.73    0.67
  WS02003072WS02003073 CONDUIT   1519.54     0  01:52      2.06    3.28    0.62
  WS02004138WS02004139 CONDUIT    190.00     0  00:32      2.17    0.04    0.42
  WS02004139WS02001211 CONDUIT    231.03     0  01:39      0.55    0.29    0.61
  WS02004401WS02004402 CONDUIT   1316.98     0  01:50      1.68    1.58    1.00
  WS02004402WS02004403 CONDUIT   1317.03     0  01:50      1.68    1.89    1.00
  WS02004403WS02004404 CONDUIT   1317.27     0  01:50      1.68    0.95    1.00
  WS02004404WS02004405 CONDUIT   1317.36     0  01:50      1.68   12.91    1.00
  WS02004405WS02004406 CONDUIT   1317.27     0  01:50      1.68    2.60    1.00
  WS02004406WS02004407 CONDUIT   1317.19     0  01:50      1.84    0.59    0.98
  WS02004407WS02004409 CONDUIT   1315.85     0  01:50      2.01    0.47    0.98
  WS02004409WS02004410 CONDUIT   1315.89     0  01:50      1.68    1.70    1.00
  WS02004410WS02004411 CONDUIT   1315.85     0  01:50      1.68    1.80    1.00
  WS02004411WS02004412 CONDUIT   1315.92     0  01:50      1.68    1.87    1.00
  WS02004412WS02004413 CONDUIT   1315.89     0  01:50      1.68    0.88    1.00
  WS02004413WS02003067 CONDUIT   1315.84     0  01:50      2.03    0.56    0.77
  WS02006109WS02006110 CONDUIT   1124.01     0  02:15      2.24    2.16    1.00
  WS02006110WS02006113 CONDUIT   1124.05     0  02:15      2.24    1.02    1.00
  WS02006111WS02006112 CONDUIT   1124.06     0  02:15      2.24    0.53    1.00
  WS02006112WS02006115 CONDUIT   1316.91     0  01:50      1.68    0.78    1.00
  WS02006113WS02006111 CONDUIT   1124.07     0  02:15      2.68    1.35    1.00
  WS02006115WS02006116 CONDUIT   1317.00     0  01:50      1.68    1.69    1.00
  WS02006116WS02004401 CONDUIT   1316.78     0  01:49      1.68    1.81    1.00
  WS02006228WS02006109 CONDUIT   1287.73     0  01:52      2.56    5.63    1.00
  WS02006229WS02006228 CONDUIT   1288.08     0  01:47      2.56    4.27    1.00
  WS02006230WS02006229 CONDUIT   1016.05     0  01:47      2.64   22.61    1.00
  WS02006231WS02006230 CONDUIT    470.63     0  04:00      1.36    7.14    1.00
  WS02006232WS02006231 CONDUIT    532.90     0  04:00      1.42    1.12    1.00
  WS02006234WS02006232 CONDUIT    528.17     0  04:00      1.37    1.07    1.00
  WS02006235WS02006234 CONDUIT    523.10     0  04:00      1.36    5.52    1.00
  WS02006238WS02006235 CONDUIT    415.69     0  02:10      1.22    0.93    1.00
  WS02006239WS02006238 CONDUIT    415.07     0  02:32      1.08    1.33    1.00
  WS02006240WS02006239 CONDUIT    415.06     0  02:32      1.08    1.31    1.00
  WS02006242WS02006240 CONDUIT    414.97     0  02:10      1.08    1.65    1.00
  WS02006243WS02006242 CONDUIT    400.14     0  03:40      1.13    0.85    1.00
  WS02006245WS02006243 CONDUIT    399.93     0  03:40      1.23    1.18    1.00
  WS02006247WS02006245 CONDUIT    399.46     0  03:40      1.20    3.17    1.00
  WS02006248WS02006247 CONDUIT    479.82     0  01:31      1.32    1.04    1.00
  WS02006249WS02006248 CONDUIT    563.57     0  01:31      1.51    3.09    1.00
  WS02006251WS02006249 CONDUIT   1372.26     0  01:50      3.57    3.96    1.00
  WS02006252WS02006251 CONDUIT    413.82     0  01:32      7.74    1.52    1.00
  WS02006253WS02006251 CONDUIT   1679.07     0  01:50      4.36    5.03    1.00
  WS02006256WS02006235 CONDUIT    184.30     0  05:10      2.87    1.95    1.00
  WS02006280WS02006229 CONDUIT   2304.56     0  01:47      4.58    0.49    1.00
  WS02006284WS02006280 CONDUIT   2304.00     0  01:47      3.02    0.96    1.00
  WS02006287WS02006284 CONDUIT   2303.91     0  01:47      2.93    1.07    1.00
  WSF200WS02003060     CONDUIT   1316.58     0  01:50      2.55    0.29    0.51
  YS02001580YS02001583 CONDUIT    129.29     0  01:40      0.64    0.50    1.00
  YS02001583YS02001586 CONDUIT    151.34     0  01:39      0.66    0.23    1.00
  YS02001586YS02001590 CONDUIT    318.07     0  02:05      1.26    0.56    1.00
  YS02001590YS02001593 CONDUIT    318.07     0  01:44      1.12    2.00    1.00
  YS02001593YS02001596 CONDUIT    318.03     0  02:05      1.66    0.50    1.00
  YS02001596YS02001600 CONDUIT    318.05     0  01:44      1.21    0.62    1.00
  YS02001600YS02001601 CONDUIT    318.00     0  01:58      1.12    0.55    1.00
  YS02001601YS02001602 CONDUIT    522.54     0  01:39      1.85    1.89    1.00
  YS02001602YS02001605 CONDUIT    523.19     0  01:39      1.85   11.07    1.00
  YS02001605YS02001607 CONDUIT    523.80     0  01:39      1.85    2.87    1.00
  YS02001607YS02001610 CONDUIT    526.89     0  01:39      0.67    0.50    1.00
  YS02001610YS02001613 CONDUIT    531.82     0  01:39      0.68    0.61    1.00
  YS02001613YS02001616 CONDUIT    536.61     0  01:39      0.69    0.46    1.00
  YS02001616YS02001619 CONDUIT    512.33     0  01:39      0.68    0.89    1.00
  YS02001619YS02001622 CONDUIT    946.68     0  01:50      1.21    1.40    1.00
  YS02001622YS02001625 CONDUIT    947.14     0  01:50      1.21    0.51    1.00
  YS02001625YS02001629 CONDUIT    929.00     0  01:41      1.18    0.44    1.00
  YS02001629YS02163301 CONDUIT    927.13     0  01:41      1.18    1.14    1.00
  YS02001633YS02163601 CONDUIT   1397.30     0  01:41      1.78    1.47    1.00
  YS02001641YS02001644 CONDUIT   1390.84     0  01:41      1.77    4.50    1.00
  YS02001644YS02001647 CONDUIT   1830.24     0  01:42      2.34    1.08    1.00
  YS02001647YS02001649 CONDUIT   1853.81     0  01:42      2.36    0.98    1.00
  YS02001649YS02001757 CONDUIT   2075.98     0  01:42      2.65    1.26    1.00
  YS02001652YS02001649 CONDUIT    870.01     0  01:50      1.11    0.43    1.00
  YS02001655YS02001652 CONDUIT    869.90     0  01:50      1.39    0.42    1.00
  YS02001658YS02001655 CONDUIT    869.67     0  01:50      1.90    0.37    1.00
  YS02001661YS02001658 CONDUIT    869.32     0  01:50      2.38    0.34    1.00
  YS02001664YS02001661 CONDUIT    859.99     0  01:49      2.35    0.27    0.78
  YS02001745YS02001748 CONDUIT    591.30     0  01:44      2.24    0.23    0.89
  YS02001748YS02001751 CONDUIT    552.59     0  01:50      1.75    0.28    1.00
  YS02001751YS02001754 CONDUIT    552.83     0  01:50      1.41    0.27    1.00
  YS02001754YS02001757 CONDUIT    552.79     0  01:50      0.70    0.22    1.00
  YS02001757CaochengTiaoxuchi CONDUIT   3434.32     0  01:55      7.10    1.49    1.00
  YS02001759YS02001757 CONDUIT   1374.28     0  01:50      1.75    0.98    1.00
  YS02001762YS02001759 CONDUIT    821.82     0  01:55      1.05    0.95    1.00
  YS02001765YS02001762 CONDUIT    820.46     0  01:55      1.04    0.77    1.00
  YS02001767YS02001765 CONDUIT    819.46     0  01:55      1.04    1.03    1.00
  YS02001770YS02001767 CONDUIT    818.20     0  01:55      1.04    3.24    1.00
  YS02001774YS02001770 CONDUIT    465.92     0  01:50      0.59    0.30    1.00
  YS02001779YS02001774 CONDUIT    466.43     0  01:50      0.59    0.24    1.00
  YS02001783YS02001784 CONDUIT   1161.90     0  01:48      2.31    1.60    1.00
  YS02001784YS02001785 CONDUIT   1162.70     0  01:48      2.31    2.71    1.00
  YS02001786YS02001788 CONDUIT   1162.61     0  01:48      2.48    2.24    1.00
  YS02001788YS02001790 CONDUIT   1174.52     0  01:48      2.72    0.87    1.00
  YS02001790YS02001791 CONDUIT   1292.47     0  01:50      3.43    1.41    1.00
  YS02001791YS02001793 CONDUIT   1282.09     0  02:31      6.76    0.55    1.00
  YS02001793JiankangQianchi CONDUIT   1648.15     0  02:31     25.05    0.13    1.00
  YS02001882YS02001884 CONDUIT     56.26     0  01:41      0.16    0.06    1.00
  YS02001884YS02001887 CONDUIT     77.89     0  01:41      0.12    0.10    1.00
  YS02001887YS02001890 CONDUIT    793.77     0  01:50      1.01    1.36    1.00
  YS02001890YS02001895 CONDUIT    517.30     0  01:55      0.66    0.24    1.00
  YS02001895YS02001898 CONDUIT    517.54     0  01:55      0.66    0.90    1.00
  YS02001898YS02001901 CONDUIT    517.44     0  01:52      0.66    0.33    1.00
  YS02001901YS02001904 CONDUIT    517.40     0  01:55      0.66    0.80    1.00
  YS02001904YS02001907 CONDUIT    520.13     0  01:42      0.66    0.18    1.00
  YS02001907YS02006553 CONDUIT    792.03     0  02:12      0.88    0.93    1.00
  YS02001910YS02001907 CONDUIT   1443.10     0  01:50      1.84    0.81    1.00
  YS02001915YS02001910 CONDUIT   1442.40     0  01:50      1.84    0.72    1.00
  YS02001918YS02001915 CONDUIT    485.58     0  01:42      0.62    0.27    1.00
  YS02001920YS02001918 CONDUIT    480.10     0  01:50      0.63    0.46    1.00
  YS02001923YS02001920 CONDUIT    477.16     0  01:50      0.70    0.21    1.00
  YS02001926YS02001923 CONDUIT    503.22     0  01:42      0.97    0.72    1.00
  YS02001929YS02001926 CONDUIT    476.22     0  01:50      1.16    0.23    1.00
  YS02006553YS02006556 CONDUIT    792.47     0  02:12      1.01    0.68    1.00
  YS02006556YS02006558 CONDUIT    793.80     0  02:12      1.01    0.63    1.00
  YS02006558YS02006561 CONDUIT   1161.86     0  01:48      4.11    2.57    1.00
  YS02006561YS02001783 CONDUIT   1161.73     0  01:48      2.31    0.60    1.00
  YS02163301YS02001633 CONDUIT    926.53     0  01:41      1.18    0.87    1.00
  YS02163601YS02164001 CONDUIT   1394.86     0  01:41      1.78    1.24    1.00
  YS02164001YS02001641 CONDUIT   1392.20     0  01:41      1.77    1.90    1.00
  YSB1154YSB6556       CONDUIT    448.22     0  01:50      1.16    0.81    1.00
  YSB1171HS02004479    CONDUIT    493.98     0  01:42      0.98    0.33    1.00
  YSB1174YSB1171       CONDUIT    372.38     0  01:50      0.97    0.57    1.00
  YSB6556YSB1171       CONDUIT    448.34     0  01:50      1.16    0.46    1.00
  CC-R1                PUMP       683.00     0  00:00              1.00
  CC-R2                PUMP       683.00     0  00:00              1.00
  CC-S1                PUMP       200.00     0  00:00              1.00
  CC-S2                PUMP       200.00     0  00:10              1.00
  JK-R1                PUMP      1000.00     0  00:00              1.00
  JK-R2                PUMP      1000.00     0  00:00              1.00
  JK-S                 PUMP       300.00     0  01:10              1.00
  XR-1                 PUMP        95.00     0  00:10              1.00
  XR-2                 PUMP        95.00     0  00:29              1.00
  XR-3                 PUMP         0.00     0  00:00              0.00
  XR-4                 PUMP         0.00     0  00:00              0.00
  
  
  ***************************
  Flow Classification Summary
  ***************************
  
  -------------------------------------------------------------------------------------
                      Adjusted    ---------- Fraction of Time in Flow Class ---------- 
                       /Actual         Up    Down  Sub   Sup   Up    Down  Norm  Inlet 
  Conduit               Length    Dry  Dry   Dry   Crit  Crit  Crit  Crit  Ltd   Ctrl  
  -------------------------------------------------------------------------------------
  1                       1.00   0.00  0.00  0.00  0.00  1.00  0.00  0.00  0.57  0.00
  HS02004478WS02006287    1.00   0.16  0.00  0.00  0.63  0.21  0.00  0.00  0.44  0.00
  HS02004479HS02004480    1.00   0.07  0.00  0.00  0.93  0.00  0.00  0.00  0.14  0.00
  HS02004480HS02004478    1.00   0.14  0.00  0.00  0.55  0.00  0.00  0.31  0.00  0.00
  HS02004770HS02004777    1.00   0.00  0.14  0.00  0.86  0.00  0.00  0.00  0.03  0.00
  HS02004777HS02004785    1.00   0.00  0.00  0.00  1.00  0.00  0.00  0.00  0.15  0.00
  HS02004785HS02004788    1.00   0.00  0.00  0.00  1.00  0.00  0.00  0.00  0.00  0.00
  HS02004788HS02004792    1.00   0.00  0.00  0.00  0.97  0.03  0.00  0.00  0.83  0.00
  HS02004792HS02004799    1.00   0.00  0.00  0.00  0.97  0.03  0.00  0.00  0.76  0.00
  HS02004799HS02004480    1.00   0.01  0.06  0.00  0.84  0.00  0.09  0.00  0.00  0.00
  HS02004802HS02004478    1.00   0.14  0.00  0.00  0.85  0.00  0.00  0.00  0.03  0.00
  HS02004807HS02004802    1.00   0.14  0.00  0.00  0.85  0.00  0.00  0.01  0.00  0.00
  HS02004817HS02004807    1.00   0.00  0.14  0.00  0.86  0.00  0.00  0.00  0.02  0.00
  HS02004817HS02004824    1.00   0.00  0.00  0.00  1.00  0.00  0.00  0.00  0.72  0.00
  HS02004824HS02004830    1.00   0.00  0.00  0.00  1.00  0.00  0.00  0.00  0.01  0.00
  HS02004830HS02004837    1.00   0.00  0.00  0.00  1.00  0.00  0.00  0.00  0.80  0.00
  HS02004837HS02004842    1.00   0.00  0.00  0.00  0.98  0.02  0.00  0.00  0.14  0.00
  HS02004842HS02004848    1.00   0.00  0.14  0.00  0.86  0.00  0.00  0.00  0.39  0.00
  HS02004848HS02004852    1.00   0.14  0.00  0.00  0.86  0.00  0.00  0.00  0.59  0.00
  HS02004852HS02004856    1.00   0.14  0.01  0.00  0.85  0.00  0.00  0.00  0.53  0.00
  HS02004856HS02004862    1.00   0.00  0.17  0.00  0.83  0.00  0.00  0.00  0.63  0.00
  HS02004862HS02004870    1.00   0.00  0.00  0.00  1.00  0.00  0.00  0.00  0.03  0.00
  HS02004870HS02004876    1.00   0.02  0.00  0.00  0.98  0.01  0.00  0.00  0.77  0.00
  HS02004876HS02004881    1.00   0.05  0.00  0.00  0.77  0.18  0.00  0.00  0.00  0.00
  HS02004881HS02006253    1.00   0.01  0.09  0.00  0.65  0.01  0.00  0.24  0.42  0.00
  HS02004901HS02004770    1.00   0.14  0.00  0.00  0.86  0.00  0.00  0.00  0.00  0.00
  WS02001211WS02001212    1.00   0.00  0.06  0.00  0.94  0.00  0.00  0.00  0.00  0.00
  WS02001212WS02001213    1.00   0.06  0.00  0.00  0.68  0.00  0.26  0.00  0.00  0.00
  WS02001213WS02003059    1.00   0.01  0.02  0.00  0.98  0.00  0.00  0.00  0.00  0.00
  WS02003059WS02003060    1.00   0.00  0.00  0.00  0.99  0.01  0.00  0.00  0.04  0.00
  WS02003060WS02003069    1.00   0.00  0.00  0.00  0.95  0.05  0.00  0.00  0.28  0.00
  WS02003066WSF200        1.00   0.11  0.00  0.00  0.00  0.89  0.00  0.00  0.53  0.00
  WS02003067WS02003066    1.00   0.11  0.00  0.00  0.89  0.00  0.00  0.00  0.00  0.00
  WS02003069WS02003072    1.00   0.00  0.00  0.00  0.99  0.01  0.00  0.00  0.34  0.00
  WS02003072WS02003073    1.00   0.00  0.00  0.00  0.00  0.00  0.00  1.00  0.00  0.00
  WS02004138WS02004139    1.00   0.05  0.01  0.00  0.94  0.01  0.00  0.00  0.97  0.00
  WS02004139WS02001211    1.00   0.00  0.02  0.00  0.98  0.00  0.00  0.00  0.00  0.00
  WS02004401WS02004402    1.00   0.07  0.00  0.00  0.93  0.00  0.00  0.00  0.00  0.00
  WS02004402WS02004403    1.00   0.07  0.00  0.00  0.93  0.00  0.00  0.00  0.00  0.00
  WS02004403WS02004404    1.00   0.00  0.07  0.00  0.93  0.00  0.00  0.00  0.00  0.00
  WS02004404WS02004405    1.00   0.00  0.00  0.00  1.00  0.00  0.00  0.00  0.00  0.00
  WS02004405WS02004406    1.00   0.00  0.00  0.00  1.00  0.00  0.00  0.00  0.01  0.00
  WS02004406WS02004407    1.00   0.00  0.08  0.00  0.91  0.00  0.00  0.00  0.00  0.00
  WS02004407WS02004409    1.00   0.09  0.00  0.00  0.90  0.02  0.00  0.00  0.72  0.00
  WS02004409WS02004410    1.00   0.09  0.00  0.00  0.91  0.00  0.00  0.00  0.00  0.00
  WS02004410WS02004411    1.00   0.09  0.00  0.00  0.91  0.00  0.00  0.00  0.00  0.00
  WS02004411WS02004412    1.00   0.09  0.00  0.00  0.91  0.00  0.00  0.00  0.00  0.00
  WS02004412WS02004413    1.00   0.10  0.00  0.00  0.90  0.00  0.00  0.00  0.00  0.00
  WS02004413WS02003067    1.00   0.10  0.01  0.00  0.00  0.00  0.89  0.00  0.00  0.00
  WS02006109WS02006110    1.00   0.00  0.03  0.00  0.94  0.00  0.03  0.00  0.00  0.00
  WS02006110WS02006113    1.00   0.03  0.03  0.00  0.94  0.00  0.00  0.00  0.00  0.00
  WS02006111WS02006112    1.00   0.06  0.00  0.00  0.93  0.00  0.00  0.00  0.63  0.00
  WS02006112WS02006115    1.00   0.06  0.00  0.00  0.93  0.00  0.00  0.00  0.00  0.00
  WS02006113WS02006111    1.00   0.06  0.00  0.00  0.27  0.67  0.00  0.00  0.11  0.00
  WS02006115WS02006116    1.00   0.07  0.00  0.00  0.92  0.00  0.00  0.01  0.00  0.00
  WS02006116WS02004401    1.00   0.07  0.00  0.00  0.93  0.00  0.00  0.00  0.00  0.00
  WS02006228WS02006109    1.00   0.00  0.00  0.00  1.00  0.00  0.00  0.00  0.00  0.00
  WS02006229WS02006228    1.00   0.00  0.00  0.00  0.97  0.00  0.00  0.03  0.00  0.00
  WS02006230WS02006229    1.00   0.00  0.00  0.00  0.94  0.00  0.00  0.06  0.00  0.00
  WS02006231WS02006230    1.00   0.04  0.00  0.00  0.63  0.00  0.33  0.00  0.00  0.00
  WS02006232WS02006231    1.00   0.03  0.01  0.00  0.95  0.00  0.01  0.00  0.00  0.00
  WS02006234WS02006232    1.00   0.03  0.00  0.00  0.96  0.01  0.00  0.00  0.03  0.00
  WS02006235WS02006234    1.00   0.03  0.00  0.00  0.92  0.00  0.05  0.00  0.00  0.00
  WS02006238WS02006235    1.00   0.02  0.01  0.00  0.97  0.00  0.00  0.00  0.00  0.00
  WS02006239WS02006238    1.00   0.02  0.00  0.00  0.97  0.00  0.00  0.01  0.05  0.00
  WS02006240WS02006239    1.00   0.02  0.00  0.00  0.88  0.00  0.00  0.10  0.03  0.00
  WS02006242WS02006240    1.00   0.01  0.01  0.00  0.97  0.00  0.01  0.00  0.00  0.00
  WS02006243WS02006242    1.00   0.01  0.00  0.00  0.97  0.00  0.00  0.02  0.30  0.00
  WS02006245WS02006243    1.00   0.01  0.00  0.00  0.93  0.00  0.00  0.07  0.00  0.00
  WS02006247WS02006245    1.00   0.00  0.00  0.00  0.98  0.00  0.00  0.01  0.00  0.00
  WS02006248WS02006247    1.00   0.00  0.00  0.00  0.99  0.00  0.00  0.01  0.31  0.00
  WS02006249WS02006248    1.00   0.00  0.00  0.00  0.80  0.00  0.20  0.00  0.00  0.00
  WS02006251WS02006249    1.00   0.00  0.00  0.00  1.00  0.00  0.00  0.00  0.29  0.00
  WS02006252WS02006251    1.00   0.00  0.03  0.00  0.33  0.00  0.64  0.00  0.00  0.00
  WS02006253WS02006251    1.00   0.00  0.00  0.00  1.00  0.00  0.00  0.00  0.01  0.00
  WS02006256WS02006235    1.00   0.03  0.00  0.00  0.97  0.01  0.00  0.00  0.00  0.00
  WS02006280WS02006229    1.00   0.15  0.00  0.00  0.23  0.02  0.00  0.59  0.01  0.00
  WS02006284WS02006280    1.00   0.15  0.00  0.00  0.17  0.01  0.00  0.67  0.00  0.00
  WS02006287WS02006284    1.00   0.13  0.03  0.00  0.44  0.40  0.00  0.00  0.54  0.00
  WSF200WS02003060        1.00   0.00  0.11  0.00  0.35  0.54  0.00  0.00  0.31  0.00
  YS02001580YS02001583    1.00   0.23  0.48  0.00  0.29  0.00  0.00  0.00  0.55  0.00
  YS02001583YS02001586    1.00   0.17  0.44  0.00  0.39  0.00  0.00  0.00  0.55  0.00
  YS02001586YS02001590    1.00   0.14  0.00  0.00  0.68  0.05  0.00  0.13  0.44  0.00
  YS02001590YS02001593    1.00   0.14  0.00  0.00  0.20  0.00  0.66  0.00  0.00  0.00
  YS02001593YS02001596    1.00   0.15  0.00  0.00  0.22  0.01  0.00  0.62  0.04  0.00
  YS02001596YS02001600    1.00   0.15  0.00  0.00  0.28  0.02  0.00  0.56  0.05  0.00
  YS02001600YS02001601    1.00   0.14  0.00  0.00  0.85  0.00  0.00  0.00  0.45  0.00
  YS02001601YS02001602    1.00   0.14  0.00  0.00  0.85  0.00  0.00  0.00  0.00  0.00
  YS02001602YS02001605    1.00   0.15  0.00  0.00  0.85  0.00  0.00  0.00  0.00  0.00
  YS02001605YS02001607    1.00   0.15  0.00  0.00  0.85  0.00  0.00  0.00  0.00  0.00
  YS02001607YS02001610    1.00   0.14  0.00  0.00  0.85  0.00  0.00  0.00  0.01  0.00
  YS02001610YS02001613    1.00   0.14  0.00  0.00  0.86  0.00  0.00  0.00  0.00  0.00
  YS02001613YS02001616    1.00   0.14  0.00  0.00  0.86  0.00  0.00  0.00  0.00  0.00
  YS02001616YS02001619    1.00   0.14  0.00  0.00  0.86  0.00  0.00  0.00  0.00  0.00
  YS02001619YS02001622    1.00   0.14  0.00  0.00  0.86  0.00  0.00  0.00  0.05  0.00
  YS02001622YS02001625    1.00   0.14  0.00  0.00  0.86  0.00  0.00  0.00  0.04  0.00
  YS02001625YS02001629    1.00   0.14  0.04  0.00  0.26  0.00  0.56  0.00  0.00  0.00
  YS02001629YS02163301    1.00   0.15  0.01  0.00  0.84  0.00  0.00  0.00  0.00  0.00
  YS02001633YS02163601    1.00   0.00  0.02  0.00  0.98  0.00  0.00  0.00  0.19  0.00
  YS02001641YS02001644    1.00   0.00  0.02  0.00  0.98  0.00  0.00  0.00  0.00  0.00
  YS02001644YS02001647    1.00   0.00  0.17  0.00  0.83  0.00  0.00  0.00  0.00  0.00
  YS02001647YS02001649    1.00   0.00  0.17  0.00  0.44  0.39  0.00  0.00  0.42  0.00
  YS02001649YS02001757    1.00   0.00  0.00  0.00  0.76  0.24  0.00  0.00  0.57  0.00
  YS02001652YS02001649    1.00   0.00  0.00  0.00  0.97  0.03  0.00  0.00  0.60  0.00
  YS02001655YS02001652    1.00   0.00  0.00  0.00  0.30  0.01  0.00  0.69  0.03  0.00
  YS02001658YS02001655    1.00   0.00  0.15  0.00  0.68  0.18  0.00  0.00  0.48  0.00
  YS02001661YS02001658    1.00   0.15  0.00  0.00  0.36  0.49  0.00  0.00  0.63  0.00
  YS02001664YS02001661    1.00   0.14  0.00  0.00  0.67  0.19  0.00  0.00  0.80  0.00
  YS02001745YS02001748    1.00   0.00  0.00  0.00  0.22  0.00  0.00  0.78  0.19  0.00
  YS02001748YS02001751    1.00   0.00  0.00  0.00  0.88  0.12  0.00  0.00  0.63  0.00
  YS02001751YS02001754    1.00   0.00  0.00  0.00  0.29  0.01  0.00  0.70  0.03  0.00
  YS02001754YS02001757    1.00   0.00  0.00  0.00  1.00  0.00  0.00  0.00  0.67  0.00
  YS02001757CaochengTiaoxuchi    1.00   0.00  0.00  0.00  0.63  0.37  0.00  0.00  0.20  0.00
  YS02001759YS02001757    1.00   0.00  0.00  0.00  1.00  0.00  0.00  0.00  0.53  0.00
  YS02001762YS02001759    1.00   0.00  0.00  0.00  1.00  0.00  0.00  0.00  0.03  0.00
  YS02001765YS02001762    1.00   0.00  0.00  0.00  1.00  0.00  0.00  0.00  0.56  0.00
  YS02001767YS02001765    1.00   0.00  0.00  0.00  1.00  0.00  0.00  0.00  0.00  0.00
  YS02001770YS02001767    1.00   0.00  0.00  0.00  1.00  0.00  0.00  0.00  0.00  0.00
  YS02001774YS02001770    1.00   0.01  0.14  0.00  0.85  0.00  0.00  0.00  0.03  0.00
  YS02001779YS02001774    1.00   0.00  0.00  0.00  1.00  0.00  0.00  0.00  0.63  0.00
  YS02001783YS02001784    1.00   0.00  0.18  0.00  0.82  0.00  0.00  0.00  0.40  0.00
  YS02001784YS02001785    1.00   0.00  0.00  0.00  1.00  0.00  0.00  0.00  0.21  0.00
  YS02001786YS02001788    1.00   0.00  0.00  0.00  0.74  0.26  0.00  0.00  0.00  0.00
  YS02001788YS02001790    1.00   0.00  0.00  0.00  0.25  0.75  0.00  0.00  0.71  0.00
  YS02001790YS02001791    1.00   0.00  0.00  0.00  0.05  0.95  0.00  0.00  0.21  0.00
  YS02001791YS02001793    1.00   0.00  0.00  0.00  0.01  0.98  0.00  0.00  0.02  0.00
  YS02001793JiankangQianchi    1.00   0.00  0.01  0.00  0.10  0.90  0.00  0.00  0.21  0.00
  YS02001882YS02001884    1.00   0.16  0.01  0.00  0.84  0.00  0.00  0.00  0.00  0.00
  YS02001884YS02001887    1.00   0.11  0.03  0.00  0.86  0.00  0.00  0.00  0.00  0.00
  YS02001887YS02001890    1.00   0.00  0.01  0.00  0.93  0.00  0.06  0.00  0.00  0.00
  YS02001890YS02001895    1.00   0.01  0.15  0.00  0.84  0.00  0.00  0.00  0.00  0.00
  YS02001895YS02001898    1.00   0.16  0.00  0.00  0.81  0.00  0.02  0.00  0.00  0.00
  YS02001898YS02001901    1.00   0.17  0.00  0.00  0.83  0.00  0.00  0.00  0.01  0.00
  YS02001901YS02001904    1.00   0.17  0.00  0.00  0.83  0.00  0.00  0.00  0.00  0.00
  YS02001904YS02001907    1.00   0.01  0.16  0.00  0.83  0.00  0.00  0.00  0.00  0.00
  YS02001907YS02006553    1.00   0.01  0.05  0.00  0.94  0.00  0.00  0.00  0.00  0.00
  YS02001910YS02001907    1.00   0.00  0.00  0.00  0.94  0.00  0.00  0.06  0.16  0.00
  YS02001915YS02001910    1.00   0.00  0.00  0.00  0.96  0.04  0.00  0.00  0.17  0.00
  YS02001918YS02001915    1.00   0.00  0.02  0.00  0.95  0.04  0.00  0.00  0.62  0.00
  YS02001920YS02001918    1.00   0.00  0.01  0.00  0.99  0.00  0.00  0.00  0.00  0.00
  YS02001923YS02001920    1.00   0.00  0.00  0.00  1.00  0.00  0.00  0.00  0.87  0.00
  YS02001926YS02001923    1.00   0.00  0.12  0.00  0.10  0.00  0.78  0.00  0.00  0.00
  YS02001929YS02001926    1.00   0.00  0.14  0.00  0.86  0.00  0.00  0.00  0.74  0.00
  YS02006553YS02006556    1.00   0.03  0.00  0.00  0.97  0.00  0.00  0.00  0.04  0.00
  YS02006556YS02006558    1.00   0.00  0.01  0.00  0.99  0.00  0.00  0.00  0.00  0.00
  YS02006558YS02006561    1.00   0.18  0.00  0.00  0.09  0.73  0.00  0.00  0.23  0.00
  YS02006561YS02001783    1.00   0.18  0.00  0.00  0.14  0.68  0.00  0.00  0.55  0.00
  YS02163301YS02001633    1.00   0.00  0.15  0.00  0.85  0.00  0.00  0.00  0.00  0.00
  YS02163601YS02164001    1.00   0.00  0.12  0.00  0.88  0.00  0.00  0.00  0.00  0.00
  YS02164001YS02001641    1.00   0.02  0.10  0.00  0.88  0.00  0.00  0.00  0.07  0.00
  YSB1154YSB6556          1.00   0.14  0.00  0.00  0.86  0.00  0.00  0.00  0.02  0.00
  YSB1171HS02004479       1.00   0.07  0.00  0.00  0.90  0.00  0.00  0.03  0.13  0.00
  YSB1174YSB1171          1.00   0.10  0.03  0.00  0.87  0.00  0.00  0.00  0.00  0.00
  YSB6556YSB1171          1.00   0.08  0.06  0.00  0.86  0.00  0.00  0.00  0.00  0.00
  
  
  *************************
  Conduit Surcharge Summary
  *************************
  
  ----------------------------------------------------------------------------
                                                           Hours        Hours 
                         --------- Hours Full --------   Above Full   Capacity
  Conduit                Both Ends  Upstream  Dnstream   Normal Flow   Limited
  ----------------------------------------------------------------------------
  HS02004478WS02006287        0.67      0.67      0.86      0.01         0.01
  HS02004479HS02004480        0.87      0.87      0.89      0.01         0.01
  HS02004480HS02004478        0.79      0.86      0.79      1.84         0.79
  HS02004770HS02004777        0.75      0.75      0.76      0.12         0.08
  HS02004777HS02004785        0.70      0.70      0.76      0.01         0.01
  HS02004785HS02004788        0.69      0.70      0.69      1.67         0.62
  HS02004788HS02004792        0.69      0.69      0.83      0.01         0.01
  HS02004792HS02004799        0.83      0.83      0.96      0.01         0.01
  HS02004799HS02004480        0.86      0.86      0.96      1.10         0.01
  HS02004802HS02004478        0.80      0.80      0.87      0.16         0.01
  HS02004807HS02004802        0.85      0.85      0.87      0.36         0.36
  HS02004817HS02004807        0.85      0.85      1.56      0.01         0.01
  HS02004817HS02004824        0.69      0.69      1.56      0.01         0.01
  HS02004824HS02004830        0.66      0.66      0.69      0.01         0.01
  HS02004830HS02004837        0.61      0.61      0.66      0.01         0.01
  HS02004837HS02004842        0.61      0.61      0.76      0.01         0.01
  HS02004842HS02004848        0.58      0.58      0.76      0.01         0.01
  HS02004848HS02004852        0.58      0.58      0.61      0.02         0.01
  HS02004852HS02004856        0.61      0.61      0.63      0.02         0.01
  HS02004856HS02004862        0.58      0.58      0.62      0.01         0.01
  HS02004862HS02004870        0.62      0.62      0.63      0.42         0.35
  HS02004870HS02004876        0.63      0.63      0.70      0.01         0.01
  HS02004876HS02004881        0.67      0.70      0.67      1.69         0.67
  HS02004881HS02006253        0.67      0.67      2.06      0.01         0.01
  HS02004901HS02004770        0.75      0.75      0.76      0.07         0.01
  WS02003072WS02003073        0.01      0.01      0.01      3.55         0.01
  WS02004401WS02004402        1.78      1.78      1.80      1.64         1.63
  WS02004402WS02004403        1.80      1.80      1.81      1.78         1.77
  WS02004403WS02004404        1.81      1.81      2.04      0.01         0.03
  WS02004404WS02004405        2.00      2.04      2.00      4.17         2.00
  WS02004405WS02004406        1.96      2.00      1.96      2.21         1.96
  WS02004406WS02004407        0.01      0.01      1.96      0.01         0.01
  WS02004407WS02004409        0.01      0.01      1.26      0.01         0.01
  WS02004409WS02004410        1.17      1.26      1.17      1.71         1.17
  WS02004410WS02004411        1.11      1.17      1.11      1.76         1.11
  WS02004411WS02004412        1.01      1.11      1.01      1.78         1.01
  WS02004412WS02004413        1.01      1.01      1.58      0.01         0.01
  WS02004413WS02003067        0.01      0.01      1.58      0.01         0.01
  WS02006109WS02006110        2.20      2.20      2.86      2.21         0.01
  WS02006110WS02006113        1.56      1.56      2.72      0.34         0.01
  WS02006111WS02006112        1.54      1.54      3.45      0.01         0.01
  WS02006112WS02006115        1.71      1.71      2.23      0.01         0.01
  WS02006113WS02006111        1.55      1.56      1.55      1.63         1.55
  WS02006115WS02006116        1.73      1.73      1.73      1.71         1.69
  WS02006116WS02004401        1.78      1.78      1.78      1.76         1.75
  WS02006228WS02006109        2.59      2.86      2.59      3.80         2.59
  WS02006229WS02006228        2.56      2.62      2.56      3.41         2.56
  WS02006230WS02006229        3.06      3.29      3.06      4.26         1.69
  WS02006231WS02006230        2.16      2.16      2.18      3.94         1.25
  WS02006232WS02006231        2.17      2.17      2.57      0.01         0.19
  WS02006234WS02006232        2.20      2.20      2.57      0.01         0.01
  WS02006235WS02006234        2.19      2.19      2.24      3.69         1.23
  WS02006238WS02006235        2.28      2.28      2.54      0.01         0.45
  WS02006239WS02006238        2.35      2.46      2.36      2.10         0.51
  WS02006240WS02006239        2.22      2.26      2.22      2.07         0.39
  WS02006242WS02006240        2.23      2.23      2.69      2.52         1.12
  WS02006243WS02006242        2.30      2.30      2.57      0.01         0.01
  WS02006245WS02006243        2.25      2.29      2.26      0.91         0.40
  WS02006247WS02006245        2.26      2.37      2.26      3.39         0.73
  WS02006248WS02006247        2.26      2.26      2.32      0.01         0.01
  WS02006249WS02006248        2.22      2.22      2.29      2.06         0.01
  WS02006251WS02006249        2.28      2.32      2.29      2.23         1.69
  WS02006252WS02006251        2.76      2.76      2.81      1.34         0.04
  WS02006253WS02006251        2.30      2.30      2.40      1.01         0.03
  WS02006256WS02006235        3.99      4.00      5.60      0.61         0.01
  WS02006280WS02006229        1.01      1.01      1.15      0.01         0.01
  WS02006284WS02006280        0.89      0.89      1.00      0.01         0.01
  WS02006287WS02006284        0.78      0.78      0.90      0.39         0.40
  YS02001580YS02001583        0.82      0.82      0.89      0.01         0.01
  YS02001583YS02001586        0.83      0.83      1.01      0.01         0.01
  YS02001586YS02001590        1.02      1.02      1.11      0.01         0.01
  YS02001590YS02001593        1.11      1.11      1.13      1.16         0.01
  YS02001593YS02001596        1.12      1.12      1.25      0.01         0.01
  YS02001596YS02001600        1.31      1.31      1.47      0.01         0.01
  YS02001600YS02001601        1.52      1.52      1.73      0.01         0.01
  YS02001601YS02001602        1.65      1.65      1.75      1.39         0.01
  YS02001602YS02001605        1.62      1.62      1.65      2.39         0.01
  YS02001605YS02001607        1.60      1.62      1.61      1.65         1.56
  YS02001607YS02001610        1.14      1.14      1.18      0.01         0.01
  YS02001610YS02001613        1.14      1.14      1.18      0.01         0.01
  YS02001613YS02001616        1.08      1.08      1.14      0.01         0.01
  YS02001616YS02001619        1.06      1.06      1.08      0.01         0.03
  YS02001619YS02001622        1.06      1.06      1.06      1.03         0.97
  YS02001622YS02001625        1.06      1.06      1.34      0.01         0.01
  YS02001625YS02001629        0.99      0.99      1.34      0.01         0.01
  YS02001629YS02163301        1.38      1.38      1.41      0.29         0.27
  YS02001633YS02163601        1.44      1.44      1.48      0.57         0.58
  YS02001641YS02001644        1.39      1.41      1.39      1.79         1.39
  YS02001644YS02001647        1.03      1.03      1.39      0.04         0.01
  YS02001647YS02001649        1.03      1.03      1.35      0.01         0.01
  YS02001649YS02001757        1.35      1.35      1.44      0.45         0.41
  YS02001652YS02001649        0.97      0.97      1.35      0.01         0.01
  YS02001655YS02001652        0.33      0.33      0.89      0.01         0.01
  YS02001658YS02001655        0.22      0.22      0.33      0.01         0.01
  YS02001661YS02001658        0.01      0.01      0.22      0.01         0.01
  YS02001664YS02001661        0.01      0.01      0.08      0.01         0.01
  YS02001745YS02001748        0.01      0.01      0.12      0.01         0.01
  YS02001748YS02001751        0.19      0.19      0.24      0.01         0.01
  YS02001751YS02001754        0.24      0.24      0.34      0.01         0.01
  YS02001754YS02001757        0.48      0.48      1.44      0.01         0.01
  YS02001757CaochengTiaoxuchi        1.03      1.44      1.56      0.57         0.14
  YS02001759YS02001757        1.35      1.35      1.44      0.01         0.02
  YS02001762YS02001759        1.30      1.30      1.35      0.01         0.03
  YS02001765YS02001762        1.13      1.13      1.30      0.01         0.01
  YS02001767YS02001765        1.07      1.07      1.13      0.02         0.05
  YS02001770YS02001767        1.07      1.07      1.07      0.70         0.65
  YS02001774YS02001770        1.01      1.01      1.23      0.01         0.01
  YS02001779YS02001774        0.37      0.37      1.23      0.01         0.01
  YS02001783YS02001784        0.72      0.75      0.73      0.84         0.69
  YS02001784YS02001785        0.60      0.73      0.60      1.18         0.60
  YS02001786YS02001788        0.04      0.60      0.04      1.01         0.04
  YS02001788YS02001790        0.04      0.04      0.06      0.01         0.01
  YS02001790YS02001791        0.06      0.06      0.06      0.67         0.01
  YS02001791YS02001793        0.06      0.06      0.10      0.01         0.01
  YS02001793JiankangQianchi        0.08      0.08      0.67      0.01         0.01
  YS02001882YS02001884        0.63      0.63      0.65      0.01         0.01
  YS02001884YS02001887        0.67      0.67      0.69      0.01         0.01
  YS02001887YS02001890        0.71      0.71      0.72      0.14         0.01
  YS02001890YS02001895        0.62      0.62      0.74      0.01         0.01
  YS02001895YS02001898        0.62      0.62      0.62      0.01         0.01
  YS02001898YS02001901        0.63      0.63      0.67      0.01         0.01
  YS02001901YS02001904        0.66      0.66      0.67      0.01         0.01
  YS02001904YS02001907        0.66      0.66      0.98      0.01         0.01
  YS02001907YS02006553        1.19      1.19      1.28      0.01         0.01
  YS02001910YS02001907        0.74      0.74      0.96      0.01         0.01
  YS02001915YS02001910        0.63      0.63      0.74      0.01         0.01
  YS02001918YS02001915        0.54      0.54      0.63      0.01         0.01
  YS02001920YS02001918        0.54      0.54      0.55      0.01         0.01
  YS02001923YS02001920        0.49      0.49      0.55      0.01         0.01
  YS02001926YS02001923        0.14      0.14      0.18      0.01         0.01
  YS02001929YS02001926        0.01      0.01      0.18      0.01         0.01
  YS02006553YS02006556        0.85      0.85      0.98      0.01         0.01
  YS02006556YS02006558        0.92      0.92      1.01      0.01         0.01
  YS02006558YS02006561        0.58      0.84      0.58      1.12         0.58
  YS02006561YS02001783        0.50      0.50      0.75      0.01         0.01
  YS02163301YS02001633        1.41      1.41      1.45      0.01         0.01
  YS02163601YS02164001        1.41      1.41      1.48      0.28         0.01
  YS02164001YS02001641        1.41      1.41      1.41      0.94         0.91
  YSB1154YSB6556              0.93      0.93      1.13      0.01         0.01
  YSB1171HS02004479           0.81      0.81      1.14      0.01         0.01
  YSB1174YSB1171              1.01      1.01      1.46      0.01         0.01
  YSB6556YSB1171              0.93      0.93      1.61      0.01         0.01
  
  
  ***************
  Pumping Summary
  ***************
  
  ---------------------------------------------------------------------------------------------------------
                                                  Min       Avg       Max     Total     Power    % Time Off
                        Percent   Number of      Flow      Flow      Flow    Volume     Usage    Pump Curve
  Pump                 Utilized   Start-Ups       LPS       LPS       LPS  10^6 ltr     Kw-hr    Low   High
  ---------------------------------------------------------------------------------------------------------
  CC-R1                   77.85           7      0.00    522.20    683.00     7.657    133.32    0.0   70.1
  CC-R2                   44.48           6      0.00    556.51    683.00     4.631     80.87    0.0   68.8
  CC-S1                   80.54           6      0.00    155.73    200.00     2.369     16.95    0.0   51.4
  CC-S2                   33.27          10      0.00    145.15    200.00     0.985      7.63    0.0   57.7
  JK-R1                   72.13          10      0.00    226.75   1000.00     3.605     17.98    0.0    0.0
  JK-R2                   35.99          10      0.00    268.10   1000.00     2.010      9.49    0.0    0.0
  JK-S                    44.38          11      0.00     89.70    300.00     0.935     20.13    0.0    0.0
  XR-1                    97.22           1      0.00     95.00     95.00     1.995      8.83    0.0    0.0
  XR-2                    91.93           1      0.00     95.00     95.00     1.886      7.99    0.0    0.0
  XR-3                     0.00           0      0.00      0.00      0.00     0.000      0.00    0.0    0.0
  XR-4                     0.00           0      0.00      0.00      0.00     0.000      0.00    0.0    0.0
  

  Analysis begun on:  Mon Aug 22 16:57:06 2022
  Analysis ended on:  Mon Aug 22 16:57:11 2022
  Total elapsed time: 00:00:05