
  EPA STORM WATER MANAGEMENT MODEL - VERSION 5.1 (Build 5.3.0.dev0)
  --------------------------------------------------------------

  WARNING 04: minimum elevation drop used for Conduit WS02004404WS02004405
  WARNING 03: negative offset ignored for Link YS02001904YS02001907
  
  *********************************************************
  NOTE: The summary statistics displayed in this report are
  based on results found at every computational time step,  
  not just on results from each reporting time step.
  *********************************************************
  
  ****************
  Analysis Options
  ****************
  Flow Units ............... LPS
  Process Models:
    Rainfall/Runoff ........ YES
    RDII ................... NO
    Snowmelt ............... NO
    Groundwater ............ NO
    Flow Routing ........... YES
    Ponding Allowed ........ NO
    Water Quality .......... NO
  Infiltration Method ...... HORTON
  Flow Routing Method ...... DYNWAVE
  Surcharge Method ......... EXTRAN
  Starting Date ............ 01/01/2000 00:00:00
  Ending Date .............. 01/01/2000 06:00:00
  Antecedent Dry Days ...... 8.0
  Report Time Step ......... 00:01:00
  Wet Time Step ............ 00:01:00
  Dry Time Step ............ 00:01:00
  Routing Time Step ........ 30.00 sec
  Variable Time Step ....... YES
  Maximum Trials ........... 8
  Number of Threads ........ 4
  Head Tolerance ........... 0.001500 m
  
  
  **************************        Volume         Depth
  Runoff Quantity Continuity     hectare-m            mm
  **************************     ---------       -------
  Total Precipitation ......         2.875        47.465
  Evaporation Loss .........         0.000         0.000
  Infiltration Loss ........         0.238         3.930
  Surface Runoff ...........         2.573        42.468
  Final Storage ............         0.065         1.075
  Continuity Error (%) .....        -0.017
  
  
  **************************        Volume        Volume
  Flow Routing Continuity        hectare-m      10^6 ltr
  **************************     ---------     ---------
  Dry Weather Inflow .......         0.472         4.722
  Wet Weather Inflow .......         2.573        25.727
  Groundwater Inflow .......         0.000         0.000
  RDII Inflow ..............         0.000         0.000
  External Inflow ..........         0.078         0.784
  External Outflow .........         2.659        26.590
  Flooding Loss ............         0.799         7.988
  Evaporation Loss .........         0.000         0.000
  Exfiltration Loss ........         0.000         0.000
  Initial Stored Volume ....         0.303         3.031
  Final Stored Volume ......         0.178         1.782
  Continuity Error (%) .....        -6.118
  
  
  *************************
  Highest Continuity Errors
  *************************
  Node JK-storage (-34.23%)
  Node CC-storage (-6.07%)
  Node YS02001884 (5.28%)
  Node YS02001583 (-4.49%)
  Node HS02004842 (1.68%)
  
  
  ***************************
  Time-Step Critical Elements
  ***************************
  Link WS02006252WS02006251 (49.52%)
  Link WS02006238WS02006235 (11.33%)
  Link WS02006280WS02006229 (11.02%)
  Link YS02001793JiankangQianchi (8.26%)
  Link WS02004404WS02004405 (4.75%)
  
  
  ********************************
  Highest Flow Instability Indexes
  ********************************
  Link WS02006113WS02006111 (39)
  Link WS02006111WS02006112 (22)
  Link WS02006238WS02006235 (18)
  Link WS02004404WS02004405 (16)
  Link WS02006252WS02006251 (15)
  
  
  *************************
  Routing Time Step Summary
  *************************
  Minimum Time Step           :     0.49 sec
  Average Time Step           :     1.37 sec
  Maximum Time Step           :    30.00 sec
  Percent in Steady State     :    -0.00
  Average Iterations per Step :     3.11
  Percent Not Converging      :    10.78
  
  
  ***************************
  Subcatchment Runoff Summary
  ***************************
  
  ------------------------------------------------------------------------------------------------------------------------------
                            Total      Total      Total      Total     Imperv       Perv      Total       Total     Peak  Runoff
                           Precip      Runon       Evap      Infil     Runoff     Runoff     Runoff      Runoff   Runoff   Coeff
  Subcatchment                 mm         mm         mm         mm         mm         mm         mm    10^6 ltr      LPS
  ------------------------------------------------------------------------------------------------------------------------------
  sub0                      47.47       0.00       0.00       0.98      42.88       2.34      45.22        0.04    23.08   0.953
  sub1                      47.47       0.00       0.00       1.68      40.93       3.54      44.47        0.30   166.17   0.937
  sub10                     47.47       0.00       0.00       1.18      42.33       2.62      44.94        0.50   281.85   0.947
  sub11                     47.47       0.00       0.00       1.16      42.36       2.64      45.00        0.52   308.75   0.948
  sub12                     47.47       0.00       0.00       1.89      40.10       4.28      44.38        0.39   242.26   0.935
  sub14                     47.47       0.00       0.00       1.33      41.89       2.94      44.83        0.43   248.00   0.945
  sub15                     47.47       0.00       0.00       5.26      32.22       8.98      41.20        0.71   390.84   0.868
  sub16                     47.47       0.00       0.00       5.43      30.87      10.24      41.11        0.43   258.29   0.866
  sub17                     47.47       0.00       0.00       5.29      31.33       9.90      41.23        0.35   210.27   0.869
  sub2                      47.47       0.00       0.00       7.47      28.94      10.09      39.03        0.36   173.84   0.822
  sub22                     47.47       0.00       0.00       7.97      26.25      12.45      38.70        2.44  1309.23   0.815
  sub23                     47.47       0.00       0.00       6.50      29.02      11.07      40.08        1.91  1076.95   0.844
  sub3                      47.47       0.00       0.00       7.97      28.86       9.50      38.36        0.86   375.49   0.808
  sub4                      47.47       0.00       0.00       1.89      40.62       3.33      43.95        0.92   415.37   0.926
  sub5                      47.47       0.00       0.00       1.03      42.77       2.29      45.07        0.51   285.95   0.949
  sub60                     47.47       0.00       0.00       1.78      40.53       3.91      44.44        0.58   349.56   0.936
  sub61                     47.47       0.00       0.00       2.59      38.23       5.48      43.71        0.80   485.23   0.921
  sub62                     47.47       0.00       0.00       1.19      42.32       2.61      44.93        1.23   692.75   0.947
  sub63                     47.47       0.00       0.00       4.82      32.70       8.95      41.65        0.95   553.26   0.878
  sub64                     47.47       0.00       0.00       2.43      39.06       4.69      43.75        1.05   570.37   0.922
  sub65                     47.47       0.00       0.00       2.10      39.95       4.07      44.02        1.21   639.48   0.927
  sub66                     47.47       0.00       0.00       5.94      32.50       7.83      40.33        1.88   843.73   0.850
  sub67                     47.47       0.00       0.00       1.14      42.40       2.66      45.06        0.84   515.81   0.949
  sub68                     47.47       0.00       0.00       2.15      39.59       4.50      44.09        1.21   706.91   0.929
  sub69                     47.47       0.00       0.00       1.92      40.14       5.20      45.34        1.68   851.15   0.955
  sub7                      47.47       0.00       0.00       1.31      41.92       2.97      44.88        0.15    90.83   0.946
  sub70                     47.47       0.00       0.00       6.35      31.02       9.79      40.81        1.18   475.20   0.860
  sub71                     47.47       0.00       0.00       1.22      42.24       2.57      44.82        1.17   618.34   0.944
  sub72                     47.47       0.00       0.00       1.09      42.58       2.23      44.82        0.62   301.66   0.944
  sub8                      47.47       0.00       0.00       1.32      41.90       2.95      44.85        0.29   168.14   0.945
  sub9                      47.47       0.00       0.00       1.33      41.89       2.95      44.84        0.22   125.88   0.945
  
  
  ******************
  Node Depth Summary
  ******************
  
  ---------------------------------------------------------------------------------
                                 Average  Maximum  Maximum  Time of Max    Reported
                                   Depth    Depth      HGL   Occurrence   Max Depth
  Node                 Type       Meters   Meters   Meters  days hr:min      Meters
  ---------------------------------------------------------------------------------
  HS02004478           JUNCTION     0.20     1.56    10.79     0  02:20        1.52
  HS02004479           JUNCTION     0.28     1.69    10.90     0  02:20        1.65
  HS02004480           JUNCTION     0.25     1.67    10.91     0  02:20        1.62
  HS02004770           JUNCTION     0.25     1.42    11.25     0  02:17        1.42
  HS02004777           JUNCTION     0.28     1.48    11.28     0  02:17        1.44
  HS02004785           JUNCTION     0.17     1.44    11.35     0  02:17        1.32
  HS02004788           JUNCTION     0.14     1.42    11.32     0  02:17        1.32
  HS02004792           JUNCTION     0.19     1.60    11.12     0  02:17        1.60
  HS02004799           JUNCTION     0.31     1.76    10.97     0  02:20        1.76
  HS02004802           JUNCTION     0.30     1.77    10.90     0  02:20        1.67
  HS02004807           JUNCTION     0.27     1.92    11.09     0  02:20        1.74
  HS02004817           JUNCTION     0.58     2.44    11.28     0  02:20        2.18
  HS02004824           JUNCTION     0.14     2.01    11.41     0  02:20        1.75
  HS02004830           JUNCTION     0.14     2.03    11.50     0  02:20        1.80
  HS02004837           JUNCTION     0.12     2.00    11.58     0  02:20        1.80
  HS02004842           JUNCTION     0.42     2.22    11.49     0  02:20        2.19
  HS02004848           JUNCTION     0.10     2.07    11.67     0  02:20        1.77
  HS02004852           JUNCTION     0.10     2.12    11.63     0  02:20        1.72
  HS02004856           JUNCTION     0.16     2.07    11.50     0  02:20        1.68
  HS02004862           JUNCTION     0.11     2.00    11.38     0  02:20        1.58
  HS02004870           JUNCTION     0.11     2.10    11.39     0  02:20        1.52
  HS02004876           JUNCTION     0.15     1.98    11.01     0  02:20        1.59
  HS02004881           JUNCTION     0.09     2.02    11.05     0  02:20        1.39
  HS02004901           JUNCTION     0.26     1.42    11.24     0  02:17        1.42
  WS02001211           JUNCTION     0.65     0.80     5.64     0  02:28        0.80
  WS02001212           JUNCTION     0.39     0.56     5.63     0  02:27        0.56
  WS02001213           JUNCTION     0.62     0.86     5.62     0  02:27        0.86
  WS02003059           JUNCTION     0.69     0.93     5.62     0  02:26        0.93
  WS02003060           JUNCTION     0.41     0.68     5.61     0  02:26        0.68
  WS02003066           JUNCTION     0.26     0.45     6.00     0  02:25        0.45
  WS02003067           JUNCTION     0.61     0.88     6.20     0  02:25        0.88
  WS02003069           JUNCTION     0.46     0.77     5.35     0  02:26        0.77
  WS02003072           JUNCTION     0.53     0.80     5.17     0  02:27        0.80
  WS02003073           JUNCTION     0.32     0.51     4.57     0  02:27        0.51
  WS02004138           JUNCTION     0.14     0.14     7.39     0  00:32        0.14
  WS02004139           JUNCTION     0.59     0.73     5.64     0  02:28        0.73
  WS02004401           JUNCTION     0.83     1.78     7.78     0  02:24        1.77
  WS02004402           JUNCTION     0.85     1.73     7.69     0  02:24        1.72
  WS02004403           JUNCTION     0.85     1.66     7.59     0  02:24        1.65
  WS02004404           JUNCTION     0.92     1.67     7.52     0  02:24        1.66
  WS02004405           JUNCTION     0.91     1.62     7.47     0  02:24        1.62
  WS02004406           JUNCTION     0.90     1.52     7.35     0  02:25        1.51
  WS02004407           JUNCTION     0.29     0.87     7.18     0  02:25        0.87
  WS02004409           JUNCTION     0.60     1.35     7.12     0  02:25        1.34
  WS02004410           JUNCTION     0.61     1.27     6.99     0  02:25        1.26
  WS02004411           JUNCTION     0.61     1.18     6.86     0  02:25        1.18
  WS02004412           JUNCTION     0.61     1.09     6.73     0  02:25        1.09
  WS02004413           JUNCTION     0.76     1.13     6.60     0  02:25        1.13
  WS02006109           JUNCTION     1.02     2.64     9.26     0  02:17        2.64
  WS02006110           JUNCTION     0.96     2.36     8.95     0  02:23        2.36
  WS02006111           JUNCTION     0.42     1.66     8.37     0  02:24        1.65
  WS02006112           JUNCTION     1.04     2.68     8.56     0  00:00        2.27
  WS02006113           JUNCTION     0.52     1.77     8.66     0  02:24        1.76
  WS02006115           JUNCTION     0.74     1.87     8.01     0  02:24        1.86
  WS02006116           JUNCTION     0.82     1.86     7.90     0  02:25        1.86
  WS02006228           JUNCTION     1.08     3.03     9.68     0  02:20        3.00
  WS02006229           JUNCTION     1.08     3.23     9.92     0  02:20        3.19
  WS02006230           JUNCTION     1.03     2.65     9.39     0  02:13        2.65
  WS02006231           JUNCTION     0.75     2.19     9.31     0  02:27        2.19
  WS02006232           JUNCTION     0.86     2.18     9.22     0  02:13        2.18
  WS02006234           JUNCTION     0.75     1.96     9.12     0  02:12        1.96
  WS02006235           JUNCTION     0.77     2.00     9.16     0  02:50        1.92
  WS02006238           JUNCTION     0.79     2.04     9.18     0  02:50        1.93
  WS02006239           JUNCTION     0.75     1.92     9.13     0  03:10        1.78
  WS02006240           JUNCTION     0.69     1.69     8.98     0  02:50        1.62
  WS02006242           JUNCTION     0.74     1.55     8.82     0  02:09        1.55
  WS02006243           JUNCTION     0.63     1.41     8.83     0  02:50        1.36
  WS02006245           JUNCTION     0.61     1.37     8.85     0  03:13        1.27
  WS02006247           JUNCTION     0.63     1.47     8.97     0  01:43        1.22
  WS02006248           JUNCTION     0.57     1.10     8.69     0  01:43        1.10
  WS02006249           JUNCTION     0.59     1.09     8.69     0  01:43        1.09
  WS02006251           JUNCTION     0.65     2.19     9.86     0  02:20        2.08
  WS02006252           JUNCTION     0.43     1.50     9.74     0  01:40        1.50
  WS02006253           JUNCTION     0.71     3.19    10.83     0  02:20        2.69
  WS02006256           JUNCTION     1.04     2.35     9.28     0  00:30        2.35
  WS02006280           JUNCTION     0.27     1.74    10.01     0  02:20        1.71
  WS02006284           JUNCTION     0.54     1.94    10.34     0  02:20        1.89
  WS02006287           JUNCTION     0.27     1.72    10.68     0  02:20        1.67
  WSF200               JUNCTION     0.26     0.51     5.75     0  02:25        0.51
  YS02001580           JUNCTION     0.07     1.05     9.59     0  02:16        0.77
  YS02001583           JUNCTION     0.10     1.14     9.64     0  02:16        0.81
  YS02001586           JUNCTION     0.17     1.13     9.30     0  02:16        1.13
  YS02001590           JUNCTION     0.27     1.40     9.26     0  02:16        1.37
  YS02001593           JUNCTION     0.20     1.33     9.19     0  02:16        1.28
  YS02001596           JUNCTION     0.27     1.68     9.10     0  02:16        1.65
  YS02001600           JUNCTION     0.34     1.87     9.00     0  02:16        1.86
  YS02001601           JUNCTION     0.55     2.06     8.90     0  02:15        2.06
  YS02001602           JUNCTION     0.46     1.87     8.77     0  02:15        1.87
  YS02001605           JUNCTION     0.43     1.78     8.68     0  02:15        1.77
  YS02001607           JUNCTION     0.43     1.66     8.50     0  02:15        1.64
  YS02001610           JUNCTION     0.47     1.68     8.48     0  02:15        1.68
  YS02001613           JUNCTION     0.43     1.69     8.53     0  02:15        1.64
  YS02001616           JUNCTION     0.36     1.61     8.52     0  02:15        1.58
  YS02001619           JUNCTION     0.34     1.57     8.50     0  02:15        1.56
  YS02001622           JUNCTION     0.33     1.55     8.46     0  02:24        1.55
  YS02001625           JUNCTION     0.59     1.78     8.38     0  02:20        1.78
  YS02001629           JUNCTION     0.48     1.85     8.40     0  02:21        1.85
  YS02001633           JUNCTION     0.55     2.04     8.49     0  02:22        1.97
  YS02001641           JUNCTION     0.54     1.95     8.39     0  02:24        1.93
  YS02001644           JUNCTION     0.53     1.92     8.35     0  02:24        1.92
  YS02001647           JUNCTION     0.33     1.68     8.29     0  02:24        1.65
  YS02001649           JUNCTION     0.41     1.83     8.22     0  02:24        1.77
  YS02001652           JUNCTION     0.29     1.77     8.36     0  02:22        1.59
  YS02001655           JUNCTION     0.19     2.02     8.87     0  02:22        1.35
  YS02001658           JUNCTION     0.10     1.60     8.74     0  02:24        1.07
  YS02001661           JUNCTION     0.13     0.81     8.22     0  02:24        0.81
  YS02001664           JUNCTION     0.05     0.28     8.21     0  02:23        0.28
  YS02001745           JUNCTION     0.05     0.59     8.10     0  02:25        0.46
  YS02001748           JUNCTION     0.10     1.01     8.08     0  02:25        0.99
  YS02001751           JUNCTION     0.16     1.73     8.61     0  02:23        1.17
  YS02001754           JUNCTION     0.26     1.58     8.18     0  02:23        1.42
  YS02001757           JUNCTION     0.44     1.75     8.01     0  02:25        1.75
  YS02001759           JUNCTION     0.38     1.73     8.09     0  02:24        1.72
  YS02001762           JUNCTION     0.37     1.72     8.12     0  02:24        1.72
  YS02001765           JUNCTION     0.34     1.72     8.17     0  02:23        1.69
  YS02001767           JUNCTION     0.33     1.72     8.21     0  02:23        1.68
  YS02001770           JUNCTION     0.34     1.82     8.32     0  02:23        1.73
  YS02001774           JUNCTION     0.41     1.93     8.36     0  02:21        1.84
  YS02001779           JUNCTION     0.23     1.68     8.37     0  02:21        1.68
  YS02001783           JUNCTION     0.23     1.39     7.53     0  02:20        1.21
  YS02001784           JUNCTION     0.24     1.21     7.28     0  02:20        1.10
  YS02001786           JUNCTION     0.21     0.94     6.97     0  02:20        0.86
  YS02001788           JUNCTION     0.15     0.62     6.60     0  02:24        0.62
  YS02001790           JUNCTION     0.18     0.72     6.36     0  02:23        0.71
  YS02001791           JUNCTION     0.11     0.43     5.90     0  02:32        0.42
  YS02001793           JUNCTION     0.07     0.25     5.08     0  02:21        0.25
  YS02001882           JUNCTION     0.28     1.67     8.39     0  02:20        1.61
  YS02001884           JUNCTION     0.37     1.76     8.38     0  02:20        1.72
  YS02001887           JUNCTION     0.45     1.82     8.36     0  02:20        1.80
  YS02001890           JUNCTION     0.48     1.81     8.32     0  02:20        1.81
  YS02001895           JUNCTION     0.26     1.56     8.31     0  02:20        1.56
  YS02001898           JUNCTION     0.26     1.57     8.30     0  02:20        1.55
  YS02001901           JUNCTION     0.37     1.68     8.29     0  02:20        1.67
  YS02001904           JUNCTION     0.35     1.65     8.28     0  02:20        1.63
  YS02001907           JUNCTION     0.68     1.96     8.25     0  02:20        1.96
  YS02001910           JUNCTION     0.47     1.96     8.47     0  02:21        1.82
  YS02001915           JUNCTION     0.28     1.91     8.63     0  02:21        1.66
  YS02001918           JUNCTION     0.14     1.81     8.88     0  02:21        1.36
  YS02001920           JUNCTION     0.22     2.10     9.11     0  02:21        1.43
  YS02001923           JUNCTION     0.11     2.02     9.28     0  02:21        1.20
  YS02001926           JUNCTION     0.15     1.90     9.35     0  02:21        1.01
  YS02001929           JUNCTION     0.08     1.78     9.47     0  02:21        0.76
  YS02006553           JUNCTION     0.68     2.00     8.28     0  02:20        1.96
  YS02006556           JUNCTION     0.65     2.01     8.32     0  02:20        1.93
  YS02006558           JUNCTION     0.69     2.05     8.32     0  02:20        1.97
  YS02006561           JUNCTION     0.14     1.10     7.76     0  02:20        0.88
  YS02163301           JUNCTION     0.50     1.93     8.45     0  02:22        1.89
  YS02163601           JUNCTION     0.59     2.06     8.46     0  02:22        1.99
  YS02164001           JUNCTION     0.52     1.96     8.42     0  02:22        1.92
  YSB1154              JUNCTION     0.42     1.92    10.98     0  02:17        1.85
  YSB1171              JUNCTION     0.57     1.95    10.85     0  02:17        1.95
  YSB1174              JUNCTION     0.37     1.80    10.91     0  02:17        1.77
  YSB6556              JUNCTION     0.32     1.78    10.94     0  02:17        1.71
  CC-1                 OUTFALL      0.00     0.00     0.00     0  00:00        0.00
  CC-2                 OUTFALL      0.00     0.00     0.00     0  00:00        0.00
  JK-1                 OUTFALL      0.00     0.00     0.00     0  00:00        0.00
  JK-2                 OUTFALL      0.00     0.00     0.00     0  00:00        0.00
  WSC                  OUTFALL      0.32     0.51     1.18     0  02:28        0.51
  CC-storage           STORAGE      0.73     1.88     7.38     0  03:10        1.88
  JK-storage           STORAGE      0.16     4.19     4.99     0  02:10        4.07
  XR-storage           STORAGE      7.86     8.66     6.66     0  06:00        8.66
  
  
  *******************
  Node Inflow Summary
  *******************
  
  -------------------------------------------------------------------------------------------------
                                  Maximum  Maximum                  Lateral       Total        Flow
                                  Lateral    Total  Time of Max      Inflow      Inflow     Balance
                                   Inflow   Inflow   Occurrence      Volume      Volume       Error
  Node                 Type           LPS      LPS  days hr:min    10^6 ltr    10^6 ltr     Percent
  -------------------------------------------------------------------------------------------------
  HS02004478           JUNCTION      0.00  2254.55     0  02:25           0        7.31      -0.013
  HS02004479           JUNCTION      0.00   399.02     0  02:20           0       0.793       0.097
  HS02004480           JUNCTION      0.00  2060.34     0  02:20           0        5.73       0.037
  HS02004770           JUNCTION   1076.95  1076.95     0  02:25        1.91        2.15       0.149
  HS02004777           JUNCTION      0.03   739.08     0  02:17    0.000648        1.73       0.302
  HS02004785           JUNCTION      0.15   750.80     0  02:16     0.00324        1.73       0.026
  HS02004788           JUNCTION    392.51   930.97     0  02:17       0.745        2.47      -0.014
  HS02004792           JUNCTION   1309.51  2036.46     0  02:25        2.45        4.92       0.007
  HS02004799           JUNCTION    248.00  1724.53     0  02:18       0.427        4.95       0.052
  HS02004802           JUNCTION      0.00   792.05     0  02:25           0        1.62       0.244
  HS02004807           JUNCTION    308.75   791.58     0  02:25       0.523        1.67       0.248
  HS02004817           JUNCTION      0.60   483.72     0  02:25       0.013        1.21       1.407
  HS02004824           JUNCTION    415.42   597.35     0  02:18       0.918        1.44       0.038
  HS02004830           JUNCTION      0.15   596.58     0  02:18     0.00324       0.754       0.161
  HS02004837           JUNCTION    288.20   778.91     0  02:17       0.633        1.08       0.076
  HS02004842           JUNCTION      0.00   782.22     0  02:18           0       0.767       1.711
  HS02004848           JUNCTION    375.49  1046.01     0  02:20       0.864        1.48      -0.018
  HS02004852           JUNCTION      0.00  1019.15     0  02:20           0        1.34      -0.044
  HS02004856           JUNCTION    125.88  1068.66     0  02:20       0.216        1.55       0.083
  HS02004862           JUNCTION    174.04  1172.82     0  02:20       0.368        1.92      -0.001
  HS02004870           JUNCTION    168.14  1235.38     0  02:19       0.287         2.2       0.009
  HS02004876           JUNCTION    166.17  1317.75     0  02:19       0.296         2.5       0.032
  HS02004881           JUNCTION     90.83  1329.92     0  02:21       0.151        2.65       0.017
  HS02004901           JUNCTION    258.29   513.62     0  02:25        0.43       0.628       0.263
  WS02001211           JUNCTION      7.35   205.59     0  02:55       0.159        4.02       0.828
  WS02001212           JUNCTION      0.00   213.34     0  02:55           0        3.98       0.394
  WS02001213           JUNCTION      0.00   218.44     0  02:55           0        3.97       0.481
  WS02003059           JUNCTION      0.00   223.99     0  02:54           0        3.96       0.864
  WS02003060           JUNCTION     16.53  1474.41     0  02:26       0.357        13.4       0.143
  WS02003066           JUNCTION      0.00  1268.04     0  02:25           0        9.15       0.032
  WS02003067           JUNCTION      0.00  1267.79     0  02:25           0        9.15       0.069
  WS02003069           JUNCTION      0.32  1474.48     0  02:26     0.00691        13.4       0.151
  WS02003072           JUNCTION      0.00  1474.25     0  02:27           0        13.4       0.198
  WS02003073           JUNCTION      1.82  1476.07     0  02:27      0.0393        13.4       0.219
  WS02004138           JUNCTION      0.00   190.00     0  00:29           0        3.88       0.082
  WS02004139           JUNCTION      0.32   190.32     0  00:32     0.00693        3.89       0.689
  WS02004401           JUNCTION      0.00  1269.35     0  02:24           0        9.31       0.161
  WS02004402           JUNCTION      0.00  1269.46     0  02:24           0         9.3       0.152
  WS02004403           JUNCTION      0.00  1269.66     0  02:25           0        9.29       0.143
  WS02004404           JUNCTION      0.16  1269.80     0  02:24      0.0035        9.28       0.116
  WS02004405           JUNCTION      0.04  1269.99     0  02:25    0.000823        9.27       0.164
  WS02004406           JUNCTION      0.00  1269.88     0  02:24           0        9.25       0.280
  WS02004407           JUNCTION      0.00  1269.91     0  02:25           0        9.22       0.036
  WS02004409           JUNCTION      0.00  1267.81     0  02:25           0        9.22       0.084
  WS02004410           JUNCTION      0.00  1267.88     0  02:25           0        9.21       0.110
  WS02004411           JUNCTION      0.00  1267.93     0  02:25           0         9.2       0.121
  WS02004412           JUNCTION      0.00  1267.73     0  02:25           0        9.19       0.142
  WS02004413           JUNCTION      0.00  1267.82     0  02:25           0        9.17       0.226
  WS02006109           JUNCTION      1.23  1308.01     0  00:00      0.0266        9.08       0.084
  WS02006110           JUNCTION      0.00  1119.35     0  02:34           0        8.93      -0.368
  WS02006111           JUNCTION      0.00  1176.04     0  00:00           0        8.95      -0.415
  WS02006112           JUNCTION    210.27  2307.30     0  00:00       0.354        9.34       0.032
  WS02006113           JUNCTION      0.00  1119.41     0  02:34           0        8.92      -0.486
  WS02006115           JUNCTION      0.00  2152.75     0  00:00           0        9.32       0.090
  WS02006116           JUNCTION      0.00  1269.48     0  02:24           0        9.32       0.055
  WS02006228           JUNCTION      0.00  1263.26     0  02:25           0        9.03       0.042
  WS02006229           JUNCTION      0.00  2254.53     0  02:25           0        10.8       0.101
  WS02006230           JUNCTION     10.28  1001.68     0  02:25       0.222        5.22       0.112
  WS02006231           JUNCTION      0.00   519.79     0  03:50           0        4.37      -0.075
  WS02006232           JUNCTION      0.00   516.35     0  03:50           0        4.38       0.239
  WS02006234           JUNCTION      0.00   504.61     0  03:50           0        4.38      -0.052
  WS02006235           JUNCTION      0.00   505.72     0  03:50           0         4.3       0.145
  WS02006238           JUNCTION      0.00   419.37     0  04:00           0        4.13      -0.222
  WS02006239           JUNCTION      0.00   419.28     0  04:00           0        4.12      -0.329
  WS02006240           JUNCTION      0.00   420.60     0  04:00           0        4.11      -0.036
  WS02006242           JUNCTION      0.00   421.29     0  04:00           0        4.12       0.096
  WS02006243           JUNCTION      0.00   425.14     0  01:42           0        3.82      -0.232
  WS02006245           JUNCTION      0.00   442.61     0  01:43           0        3.84       0.422
  WS02006247           JUNCTION      0.00   450.70     0  01:43           0        3.84       0.055
  WS02006248           JUNCTION      0.00   461.58     0  01:42           0        4.04       0.012
  WS02006249           JUNCTION      0.00  1334.76     0  02:20           0        5.87       0.192
  WS02006251           JUNCTION      0.08  1353.93     0  02:21     0.00166        5.93      -0.018
  WS02006252           JUNCTION      0.00   456.10     0  02:20           0        3.38      -0.095
  WS02006253           JUNCTION     23.08  1351.72     0  02:21      0.0366        2.74       0.027
  WS02006256           JUNCTION      0.00   300.00     0  00:30           0       0.361      -0.265
  WS02006280           JUNCTION      0.00  2254.20     0  02:25           0        7.29      -0.003
  WS02006284           JUNCTION      0.10  2254.34     0  02:25     0.00207        7.29       0.013
  WS02006287           JUNCTION      0.00  2254.40     0  02:25           0        7.29       0.012
  WSF200               JUNCTION      0.00  1268.12     0  02:25           0        9.15       0.023
  YS02001580           JUNCTION      0.00    81.60     0  02:15           0     0.00401       2.200
  YS02001583           JUNCTION      0.00   129.58     0  02:15           0      0.0152      -4.293
  YS02001586           JUNCTION    475.20   475.20     0  02:25        1.18        1.19       0.090
  YS02001590           JUNCTION      0.00   317.82     0  02:30           0        1.09      -0.013
  YS02001593           JUNCTION      0.00   317.95     0  02:32           0        1.09       0.010
  YS02001596           JUNCTION      0.00   317.87     0  02:34           0        1.09      -0.006
  YS02001600           JUNCTION      0.00   317.92     0  02:36           0        1.09       0.011
  YS02001601           JUNCTION    851.15  1168.57     0  02:25        1.68        2.77       0.047
  YS02001602           JUNCTION      0.00   494.90     0  02:15           0        2.04       0.041
  YS02001605           JUNCTION      0.00   495.26     0  02:15           0        1.97       0.051
  YS02001607           JUNCTION      0.00   495.62     0  02:15           0        1.97       0.123
  YS02001610           JUNCTION      0.00   495.35     0  02:14           0        1.97       0.140
  YS02001613           JUNCTION      0.00   495.83     0  02:15           0        1.77       0.116
  YS02001616           JUNCTION      0.00   494.73     0  02:15           0        1.76       0.041
  YS02001619           JUNCTION    843.73   930.46     0  02:20        1.88        3.64       0.006
  YS02001622           JUNCTION      0.00   930.77     0  02:20           0        3.64       0.013
  YS02001625           JUNCTION      0.00   930.17     0  02:20           0        3.64       0.403
  YS02001629           JUNCTION      0.00   930.04     0  02:20           0        3.34      -0.047
  YS02001633           JUNCTION    639.68  1374.82     0  02:20        1.22        4.56       0.088
  YS02001641           JUNCTION      0.00  1373.01     0  02:20           0        4.56       0.072
  YS02001644           JUNCTION    570.41  1773.93     0  02:20        1.05         5.6       0.068
  YS02001647           JUNCTION      0.00  1773.46     0  02:20           0        5.59       0.008
  YS02001649           JUNCTION      0.00  2046.62     0  02:20           0        6.54       0.010
  YS02001652           JUNCTION      0.00   613.82     0  02:25           0        0.95      -0.099
  YS02001655           JUNCTION      0.15   613.52     0  02:25     0.00332        0.95       0.055
  YS02001658           JUNCTION      0.00   614.21     0  02:25           0       0.946      -0.018
  YS02001661           JUNCTION      0.00   552.23     0  02:25           0       0.946       0.019
  YS02001664           JUNCTION    553.26   553.26     0  02:25       0.946       0.946      -0.005
  YS02001745           JUNCTION    349.57   349.57     0  02:25       0.584       0.584       0.293
  YS02001748           JUNCTION      0.04   565.19     0  02:25    0.000972       0.593      -0.419
  YS02001751           JUNCTION      0.01   496.03     0  02:26    0.000238       0.597       0.116
  YS02001754           JUNCTION      0.26   443.58     0  02:25     0.00562       0.599      -0.199
  YS02001757           JUNCTION      0.00  3342.08     0  02:25           0        9.19       0.021
  YS02001759           JUNCTION    485.27  1179.95     0  02:25       0.803        2.05      -0.007
  YS02001762           JUNCTION      0.00   695.48     0  02:25           0        1.25       0.007
  YS02001765           JUNCTION      0.00   694.98     0  02:25           0        1.25       0.014
  YS02001767           JUNCTION      0.54   694.61     0  02:25      0.0116        1.25       0.025
  YS02001770           JUNCTION    692.90   693.24     0  02:25        1.23        1.28       0.001
  YS02001774           JUNCTION      0.00   211.93     0  02:21           0      0.0785       1.573
  YS02001779           JUNCTION      0.01   217.20     0  02:21    0.000108      0.0272      -1.284
  YS02001783           JUNCTION      0.00  1152.60     0  02:23           0        3.44       0.008
  YS02001784           JUNCTION      1.06  1153.99     0  02:23      0.0229        3.47       0.018
  YS02001786           JUNCTION      0.06  1153.62     0  02:23     0.00122        3.47       0.022
  YS02001788           JUNCTION      0.07  1153.74     0  02:22     0.00153        3.47       0.010
  YS02001790           JUNCTION      0.15  1166.61     0  02:24     0.00335        3.47       0.008
  YS02001791           JUNCTION      0.00  1276.18     0  02:23           0        3.47      -0.001
  YS02001793           JUNCTION      0.00  1232.08     0  02:21           0        3.47       0.003
  YS02001882           JUNCTION      0.00    37.10     0  02:18           0      0.0124       5.446
  YS02001884           JUNCTION      0.00    62.92     0  02:17           0      0.0477       5.579
  YS02001887           JUNCTION    516.26   516.29     0  02:25       0.848       0.881       0.522
  YS02001890           JUNCTION      0.00   516.22     0  02:25           0        0.84       0.623
  YS02001895           JUNCTION      0.00   509.05     0  02:25           0       0.834       0.183
  YS02001898           JUNCTION      0.00   509.11     0  02:25           0       0.833       0.048
  YS02001901           JUNCTION      0.00   509.08     0  02:25           0       0.835       0.393
  YS02001904           JUNCTION      0.00   509.16     0  02:25           0       0.839       0.337
  YS02001907           JUNCTION      0.00  1423.27     0  02:25           0        2.68       0.670
  YS02001910           JUNCTION      0.00   955.59     0  02:22           0        1.85       0.391
  YS02001915           JUNCTION    618.36   955.73     0  02:22        1.17        1.88       0.091
  YS02001918           JUNCTION      0.00   436.32     0  02:22           0       0.725       0.032
  YS02001920           JUNCTION      2.87   435.89     0  02:22       0.062       0.712       0.138
  YS02001923           JUNCTION      0.04   377.95     0  02:21    0.000814       0.637      -0.017
  YS02001926           JUNCTION      0.05   373.61     0  02:21     0.00113       0.623       0.028
  YS02001929           JUNCTION    301.66   308.63     0  02:21       0.616       0.616      -0.077
  YS02006553           JUNCTION      0.00   793.65     0  02:35           0        2.26       0.521
  YS02006556           JUNCTION      0.00   793.59     0  02:35           0        2.26       0.353
  YS02006558           JUNCTION    707.79  1163.20     0  02:20        1.23        3.47       0.106
  YS02006561           JUNCTION      0.00  1162.26     0  02:20           0        3.44      -0.002
  YS02163301           JUNCTION      0.00   930.30     0  02:20           0        3.35       0.058
  YS02163601           JUNCTION      0.11  1374.34     0  02:20     0.00238        4.56       0.121
  YS02164001           JUNCTION      0.00  1374.21     0  02:20           0        4.55       0.056
  YSB1154              JUNCTION    285.95   285.95     0  02:25       0.511       0.511       0.293
  YSB1171              JUNCTION      0.00   528.55     0  02:25           0       0.906       0.710
  YSB1174              JUNCTION    242.26   242.26     0  02:25       0.388       0.388       0.324
  YSB6556              JUNCTION      0.00   286.05     0  02:25           0       0.512       0.229
  CC-1                 OUTFALL       0.00   683.00     0  00:00           0        6.22       0.000
  CC-2                 OUTFALL       0.00   683.00     0  00:00           0         2.5       0.000
  JK-1                 OUTFALL       0.00  1000.00     0  00:00           0        3.25       0.000
  JK-2                 OUTFALL       0.00  1000.00     0  02:10           0        1.25       0.000
  WSC                  OUTFALL       0.00  1476.25     0  02:28           0        13.4       0.000
  CC-storage           STORAGE       0.00  3341.22     0  02:25           0        11.4      -5.724
  JK-storage           STORAGE       0.00  1274.99     0  02:21           0        3.62     -25.501
  XR-storage           STORAGE     200.00   200.00     0  00:00        4.32        4.92       0.001
  
  
  **********************
  Node Surcharge Summary
  **********************
  
  Surcharging occurs when water rises above the top of the highest conduit.
  ---------------------------------------------------------------------
                                               Max. Height   Min. Depth
                                   Hours       Above Crown    Below Rim
  Node                 Type      Surcharged         Meters       Meters
  ---------------------------------------------------------------------
  HS02004478           JUNCTION        0.33          0.640        0.300
  HS02004479           JUNCTION        0.45          0.895        0.155
  HS02004480           JUNCTION        0.50          0.962        0.138
  HS02004770           JUNCTION        0.40          0.720        0.000
  HS02004777           JUNCTION        0.41          0.780        0.000
  HS02004785           JUNCTION        0.36          0.744        0.046
  HS02004788           JUNCTION        0.35          0.720        0.000
  HS02004792           JUNCTION        0.46          0.900        0.000
  HS02004799           JUNCTION        0.59          1.060        0.000
  HS02004802           JUNCTION        0.51          1.058        0.152
  HS02004807           JUNCTION        0.49          1.220        0.000
  HS02004817           JUNCTION        1.06          1.737        0.003
  HS02004824           JUNCTION        0.35          1.310        0.000
  HS02004830           JUNCTION        0.32          1.330        0.000
  HS02004837           JUNCTION        0.29          1.296        0.044
  HS02004842           JUNCTION        0.41          1.520        0.000
  HS02004848           JUNCTION        0.23          1.370        0.000
  HS02004852           JUNCTION        0.25          1.420        0.000
  HS02004856           JUNCTION        0.23          1.300        0.000
  HS02004862           JUNCTION        0.27          1.300        0.000
  HS02004870           JUNCTION        0.28          1.400        0.000
  HS02004876           JUNCTION        0.33          1.276        0.284
  HS02004881           JUNCTION        0.30          1.318        0.132
  HS02004901           JUNCTION        0.41          0.720        0.000
  WS02004401           JUNCTION        1.44          0.781        0.879
  WS02004402           JUNCTION        1.51          0.727        1.013
  WS02004403           JUNCTION        1.53          0.656        1.374
  WS02004404           JUNCTION        1.72          0.670        2.110
  WS02004405           JUNCTION        1.67          0.623        2.177
  WS02004406           JUNCTION        1.61          0.516        1.934
  WS02004409           JUNCTION        0.83          0.351        2.009
  WS02004410           JUNCTION        0.79          0.266        2.274
  WS02004411           JUNCTION        0.71          0.177        2.353
  WS02004412           JUNCTION        0.62          0.086        2.224
  WS02004413           JUNCTION        1.04          0.134        2.066
  WS02006109           JUNCTION        2.51          1.820        0.000
  WS02006110           JUNCTION        1.83          1.453        0.397
  WS02006111           JUNCTION        1.01          0.849        1.021
  WS02006112           JUNCTION        2.03          1.680        0.000
  WS02006113           JUNCTION        1.03          0.969        0.961
  WS02006115           JUNCTION        1.33          0.857        1.393
  WS02006116           JUNCTION        1.34          0.803        1.487
  WS02006228           JUNCTION        2.50          2.200        0.000
  WS02006229           JUNCTION        0.73          1.048        0.022
  WS02006230           JUNCTION        1.77          1.570        0.000
  WS02006231           JUNCTION        1.91          1.479        0.051
  WS02006232           JUNCTION        2.36          1.480        0.000
  WS02006234           JUNCTION        2.17          1.240        0.000
  WS02006235           JUNCTION        2.24          1.290        0.000
  WS02006238           JUNCTION        2.29          1.318        0.112
  WS02006239           JUNCTION        2.22          1.183        0.107
  WS02006240           JUNCTION        2.20          0.976        0.414
  WS02006242           JUNCTION        2.33          0.820        0.000
  WS02006243           JUNCTION        2.13          0.699        0.071
  WS02006245           JUNCTION        2.01          0.659        0.191
  WS02006247           JUNCTION        2.03          0.760        0.000
  WS02006248           JUNCTION        1.91          0.380        0.000
  WS02006249           JUNCTION        1.94          0.390        0.000
  WS02006251           JUNCTION        1.36          1.159        0.021
  WS02006252           JUNCTION        2.24          1.100        0.000
  WS02006253           JUNCTION        1.41          2.146        0.334
  WS02006256           JUNCTION        5.58          2.050        0.000
  WS02006280           JUNCTION        0.60          0.690        0.090
  WS02006284           JUNCTION        0.53          0.663        0.137
  WS02006287           JUNCTION        0.42          0.724        0.166
  YS02001580           JUNCTION        0.42          0.450        0.000
  YS02001583           JUNCTION        0.43          0.500        0.000
  YS02001586           JUNCTION        0.55          0.510        0.000
  YS02001590           JUNCTION        0.62          0.750        0.000
  YS02001593           JUNCTION        0.63          0.711        0.129
  YS02001596           JUNCTION        0.74          0.951        0.119
  YS02001600           JUNCTION        0.91          1.190        0.000
  YS02001601           JUNCTION        1.37          1.440        0.000
  YS02001602           JUNCTION        1.20          1.270        0.000
  YS02001605           JUNCTION        1.14          1.180        0.000
  YS02001607           JUNCTION        0.60          0.656        0.024
  YS02001610           JUNCTION        0.63          0.680        0.000
  YS02001613           JUNCTION        0.59          0.686        0.014
  YS02001616           JUNCTION        0.54          0.610        0.000
  YS02001619           JUNCTION        0.53          0.569        0.041
  YS02001622           JUNCTION        0.53          0.554        0.066
  YS02001625           JUNCTION        0.73          0.780        0.000
  YS02001629           JUNCTION        0.48          0.470        0.000
  YS02001633           JUNCTION        0.78          1.018        0.042
  YS02001641           JUNCTION        0.71          0.951        0.149
  YS02001644           JUNCTION        0.65          0.920        0.000
  YS02001647           JUNCTION        0.36          0.680        0.220
  YS02001649           JUNCTION        0.55          0.828        0.222
  YS02001652           JUNCTION        0.25          0.736        0.394
  YS02001655           JUNCTION        0.12          1.021        0.179
  YS02001658           JUNCTION        0.02          0.603        0.697
  YS02001751           JUNCTION        0.04          0.726        0.474
  YS02001754           JUNCTION        0.12          0.527        0.623
  YS02001757           JUNCTION        0.95          0.753        0.457
  YS02001759           JUNCTION        0.57          0.726        0.484
  YS02001762           JUNCTION        0.40          0.719        0.431
  YS02001765           JUNCTION        0.34          0.721        0.379
  YS02001767           JUNCTION        0.27          0.723        0.307
  YS02001770           JUNCTION        0.24          0.795        0.125
  YS02001774           JUNCTION        0.37          0.933        0.117
  YS02001779           JUNCTION        0.14          0.680        0.000
  YS02001783           JUNCTION        0.41          0.594        1.006
  YS02001784           JUNCTION        0.38          0.411        1.079
  YS02001786           JUNCTION        0.28          0.143        1.287
  YS02001882           JUNCTION        0.35          0.674        0.156
  YS02001884           JUNCTION        0.36          0.703        0.167
  YS02001887           JUNCTION        0.40          0.770        0.180
  YS02001890           JUNCTION        0.41          0.760        0.000
  YS02001895           JUNCTION        0.34          0.564        0.186
  YS02001898           JUNCTION        0.34          0.538        0.202
  YS02001901           JUNCTION        0.39          0.679        0.191
  YS02001904           JUNCTION        0.37          0.646        0.204
  YS02001907           JUNCTION        0.64          0.950        0.000
  YS02001910           JUNCTION        0.44          0.963        0.137
  YS02001915           JUNCTION        0.35          0.912        0.088
  YS02001918           JUNCTION        0.26          0.810        0.000
  YS02001920           JUNCTION        0.28          1.099        0.041
  YS02001923           JUNCTION        0.01          0.807        0.013
  YS02001926           JUNCTION        0.01          0.900        0.000
  YS02001929           JUNCTION        0.01          0.780        0.000
  YS02006553           JUNCTION        0.66          1.000        0.190
  YS02006556           JUNCTION        0.53          0.966        0.384
  YS02006558           JUNCTION        0.52          0.953        0.447
  YS02006561           JUNCTION        0.24          0.297        0.853
  YS02163301           JUNCTION        0.75          0.930        0.100
  YS02163601           JUNCTION        1.04          1.058        0.022
  YS02164001           JUNCTION        0.71          0.963        0.137
  YSB1154              JUNCTION        0.71          1.224        0.176
  YSB1171              JUNCTION        0.71          1.100        0.000
  YSB1174              JUNCTION        0.63          1.102        0.148
  YSB6556              JUNCTION        0.56          1.076        0.024
  
  
  *********************
  Node Flooding Summary
  *********************
  
  Flooding refers to all water that overflows a node, whether it ponds or not.
  --------------------------------------------------------------------------
                                                             Total   Maximum
                                 Maximum   Time of Max       Flood    Ponded
                        Hours       Rate    Occurrence      Volume     Depth
  Node                 Flooded       LPS   days hr:min    10^6 ltr    Meters
  --------------------------------------------------------------------------
  HS02004770              0.25    486.91      0  02:25       0.218     0.000
  HS02004777              0.01      1.10      0  02:17       0.000     0.000
  HS02004788              0.01    363.70      0  02:17       0.002     0.000
  HS02004792              0.22    893.96      0  02:25       0.398     0.000
  HS02004799              0.06     49.03      0  02:25       0.005     0.000
  HS02004807              0.01     14.35      0  02:20       0.000     0.000
  HS02004824              0.01     16.17      0  02:20       0.000     0.000
  HS02004830              0.01     14.78      0  02:20       0.000     0.000
  HS02004842              0.01    176.83      0  02:20       0.001     0.000
  HS02004848              0.01    376.16      0  02:20       0.001     0.000
  HS02004852              0.01    273.55      0  02:20       0.000     0.000
  HS02004856              0.01    188.96      0  02:20       0.000     0.000
  HS02004862              0.01    275.48      0  02:20       0.000     0.000
  HS02004870              0.01     95.04      0  02:20       0.000     0.000
  HS02004901              0.30    513.58      0  02:25       0.389     0.000
  WS02006109              0.28    205.23      0  02:25       0.118     0.000
  WS02006112              0.01   1153.65      0  00:00       0.035     0.000
  WS02006228              0.01      0.65      0  02:20       0.000     0.000
  WS02006230              0.54    548.74      0  02:25       0.642     0.000
  WS02006232              0.15      0.64      0  02:37       0.000     0.000
  WS02006234              0.59    127.97      0  02:43       0.136     0.000
  WS02006235              0.01      8.58      0  02:50       0.000     0.000
  WS02006242              0.68    137.30      0  02:42       0.287     0.000
  WS02006247              0.01    143.35      0  01:43       0.000     0.000
  WS02006248              0.92    339.51      0  02:13       0.954     0.000
  WS02006249              1.26   1273.80      0  02:20       2.570     0.000
  WS02006252              0.17    438.26      0  02:20       0.201     0.000
  WS02006256              0.22    289.19      0  00:30       0.144     0.000
  YS02001580              0.01     32.61      0  02:16       0.000     0.000
  YS02001583              0.01     66.79      0  02:16       0.000     0.000
  YS02001586              0.28    157.69      0  02:25       0.086     0.000
  YS02001590              0.01      5.98      0  02:16       0.000     0.000
  YS02001600              0.01      1.71      0  02:16       0.000     0.000
  YS02001601              0.48    770.63      0  02:25       0.731     0.000
  YS02001602              0.33     61.90      0  02:24       0.064     0.000
  YS02001605              0.01      1.25      0  02:15       0.000     0.000
  YS02001610              0.27    322.47      0  02:25       0.203     0.000
  YS02001616              0.01      6.92      0  02:15       0.000     0.000
  YS02001625              0.22    777.43      0  02:25       0.284     0.000
  YS02001629              0.03     19.84      0  02:23       0.001     0.000
  YS02001644              0.01     18.04      0  02:24       0.000     0.000
  YS02001779              0.01    180.58      0  02:21       0.001     0.000
  YS02001890              0.04     16.98      0  02:20       0.000     0.000
  YS02001907              0.21    965.79      0  02:25       0.416     0.000
  YS02001918              0.01     79.05      0  02:21       0.000     0.000
  YS02001926              0.01    169.22      0  02:21       0.000     0.000
  YS02001929              0.01    249.07      0  02:21       0.001     0.000
  YSB1171                 0.16    406.41      0  02:25       0.114     0.000
  
  
  **********************
  Storage Volume Summary
  **********************
  
  --------------------------------------------------------------------------------------------------
                         Average     Avg  Evap Exfil       Maximum     Max    Time of Max    Maximum
                          Volume    Pcnt  Pcnt  Pcnt        Volume    Pcnt     Occurrence    Outflow
  Storage Unit           1000 m3    Full  Loss  Loss       1000 m3    Full    days hr:min        LPS
  --------------------------------------------------------------------------------------------------
  CC-storage               2.026      32     0     0         5.242      82       0  03:10    1766.00
  JK-storage               0.008       3     0     0         0.210      72       0  02:10    2300.00
  XR-storage               0.943      65     0     0         1.039      72       0  06:00     190.00
  
  
  ***********************
  Outfall Loading Summary
  ***********************
  
  -----------------------------------------------------------
                         Flow       Avg       Max       Total
                         Freq      Flow      Flow      Volume
  Outfall Node           Pcnt       LPS       LPS    10^6 ltr
  -----------------------------------------------------------
  CC-1                  65.06    594.39    683.00       6.222
  CC-2                  19.76    515.69    683.00       2.503
  JK-1                  63.74    259.80   1000.00       3.252
  JK-2                  25.61    269.66   1000.00       1.246
  WSC                   99.99    677.00   1476.25      13.366
  -----------------------------------------------------------
  System                54.83   2316.54   4842.25      26.590
  
  
  ********************
  Link Flow Summary
  ********************
  
  -----------------------------------------------------------------------------
                                 Maximum  Time of Max   Maximum    Max/    Max/
                                  |Flow|   Occurrence   |Veloc|    Full    Full
  Link                 Type          LPS  days hr:min     m/sec    Flow   Depth
  -----------------------------------------------------------------------------
  1                    CONDUIT   1476.25     0  02:28      3.68    0.51    0.51
  HS02004478WS02006287 CONDUIT   2254.40     0  02:25      2.60    0.63    1.00
  HS02004479HS02004480 CONDUIT    400.10     0  02:20      0.57    0.39    1.00
  HS02004480HS02004478 CONDUIT   2059.87     0  02:20      2.94    8.68    1.00
  HS02004770HS02004777 CONDUIT    739.05     0  02:17      1.06    1.35    1.00
  HS02004777HS02004785 CONDUIT    750.65     0  02:16      1.14    0.92    1.00
  HS02004785HS02004788 CONDUIT    717.12     0  02:17      1.36    5.41    1.00
  HS02004788HS02004792 CONDUIT    827.01     0  02:17      1.45    0.55    1.00
  HS02004792HS02004799 CONDUIT   1571.98     0  02:18      2.25    0.96    1.00
  HS02004799HS02004480 CONDUIT   1723.51     0  02:18      2.46    2.18    1.00
  HS02004802HS02004478 CONDUIT    792.41     0  02:25      1.13    0.70    1.00
  HS02004807HS02004802 CONDUIT    792.05     0  02:25      1.13    1.51    1.00
  HS02004817HS02004807 CONDUIT    484.11     0  02:25      0.69    0.29    1.00
  HS02004817HS02004824 CONDUIT    483.12     0  02:25      0.69    0.22    1.00
  HS02004824HS02004830 CONDUIT    596.43     0  02:18      0.85    0.78    1.00
  HS02004830HS02004837 CONDUIT    603.74     0  02:17      0.95    0.60    1.00
  HS02004837HS02004842 CONDUIT    782.22     0  02:18      1.12    0.47    1.00
  HS02004842HS02004848 CONDUIT    782.77     0  02:18      1.24    0.46    1.00
  HS02004848HS02004852 CONDUIT   1019.15     0  02:20      1.57    1.15    1.00
  HS02004852HS02004856 CONDUIT    977.21     0  02:20      1.45    1.12    1.00
  HS02004856HS02004862 CONDUIT   1052.95     0  02:20      1.69    1.05    1.00
  HS02004862HS02004870 CONDUIT   1123.01     0  02:19      1.93    1.21    1.00
  HS02004870HS02004876 CONDUIT   1207.40     0  02:19      1.93    0.80    1.00
  HS02004876HS02004881 CONDUIT   1258.86     0  02:21      2.56   13.39    1.00
  HS02004881HS02006253 CONDUIT   1332.92     0  02:21      1.90    0.26    1.00
  HS02004901HS02004770 CONDUIT    265.65     0  02:31      0.38    1.00    1.00
  WS02001211WS02001212 CONDUIT    213.34     0  02:55      0.54    0.16    0.68
  WS02001212WS02001213 CONDUIT    218.44     0  02:55      1.04    0.34    0.55
  WS02001213WS02003059 CONDUIT    223.99     0  02:54      0.47    0.37    0.88
  WS02003059WS02003060 CONDUIT    231.02     0  02:55      0.66    0.15    0.80
  WS02003060WS02003069 CONDUIT   1474.16     0  02:26      2.07    0.58    0.60
  WS02003066WSF200     CONDUIT   1268.12     0  02:25      3.23    0.21    0.38
  WS02003067WS02003066 CONDUIT   1268.04     0  02:25      1.97    0.41    0.55
  WS02003069WS02003072 CONDUIT   1474.25     0  02:27      1.88    0.71    0.65
  WS02003072WS02003073 CONDUIT   1474.25     0  02:27      2.04    3.18    0.61
  WS02004138WS02004139 CONDUIT    190.00     0  00:32      2.15    0.04    0.41
  WS02004139WS02001211 CONDUIT    198.24     0  02:55      0.53    0.25    0.60
  WS02004401WS02004402 CONDUIT   1269.46     0  02:24      2.07    1.52    1.00
  WS02004402WS02004403 CONDUIT   1269.66     0  02:25      1.84    1.82    1.00
  WS02004403WS02004404 CONDUIT   1269.64     0  02:24      1.66    0.92    1.00
  WS02004404WS02004405 CONDUIT   1269.95     0  02:25      1.85   12.44    1.00
  WS02004405WS02004406 CONDUIT   1269.88     0  02:24      1.73    2.50    1.00
  WS02004406WS02004407 CONDUIT   1269.91     0  02:25      1.70    0.57    0.94
  WS02004407WS02004409 CONDUIT   1267.81     0  02:25      1.73    0.45    0.94
  WS02004409WS02004410 CONDUIT   1267.88     0  02:25      1.61    1.64    1.00
  WS02004410WS02004411 CONDUIT   1267.93     0  02:25      1.61    1.73    1.00
  WS02004411WS02004412 CONDUIT   1267.73     0  02:25      1.61    1.80    1.00
  WS02004412WS02004413 CONDUIT   1267.82     0  02:25      1.61    0.85    1.00
  WS02004413WS02003067 CONDUIT   1267.79     0  02:25      1.97    0.54    0.76
  WS02006109WS02006110 CONDUIT   1306.78     0  00:00      3.15    2.51    1.00
  WS02006110WS02006113 CONDUIT   1119.41     0  02:34      2.23    1.02    1.00
  WS02006111WS02006112 CONDUIT   2307.30     0  00:00      9.18    1.10    1.00
  WS02006112WS02006115 CONDUIT   2152.75     0  00:00      2.85    1.27    1.00
  WS02006113WS02006111 CONDUIT   1176.04     0  00:00      2.72    1.41    1.00
  WS02006115WS02006116 CONDUIT   1269.48     0  02:24      1.81    1.63    1.00
  WS02006116WS02004401 CONDUIT   1269.35     0  02:24      2.21    1.75    1.00
  WS02006228WS02006109 CONDUIT   1262.98     0  02:25      2.51    5.52    1.00
  WS02006229WS02006228 CONDUIT   1263.26     0  02:25      2.51    4.18    1.00
  WS02006230WS02006229 CONDUIT    991.40     0  02:25      2.58   22.06    1.00
  WS02006231WS02006230 CONDUIT    503.82     0  03:50      1.37    7.64    1.00
  WS02006232WS02006231 CONDUIT    519.79     0  03:50      1.36    1.09    1.00
  WS02006234WS02006232 CONDUIT    516.35     0  03:50      1.36    1.04    1.00
  WS02006235WS02006234 CONDUIT    504.61     0  03:50      1.31    5.32    1.00
  WS02006238WS02006235 CONDUIT    420.44     0  04:00      1.55    0.94    1.00
  WS02006239WS02006238 CONDUIT    419.37     0  04:00      1.26    1.34    1.00
  WS02006240WS02006239 CONDUIT    419.28     0  04:00      1.31    1.32    1.00
  WS02006242WS02006240 CONDUIT    420.60     0  04:00      1.16    1.67    1.00
  WS02006243WS02006242 CONDUIT    421.29     0  04:00      1.39    0.90    1.00
  WS02006245WS02006243 CONDUIT    425.14     0  01:42      1.40    1.26    1.00
  WS02006247WS02006245 CONDUIT    442.61     0  01:43      1.38    3.51    1.00
  WS02006248WS02006247 CONDUIT    450.70     0  01:43      1.39    0.98    1.00
  WS02006249WS02006248 CONDUIT    461.58     0  01:42      1.38    2.53    1.00
  WS02006251WS02006249 CONDUIT   1334.76     0  02:20      3.47    3.85    1.00
  WS02006252WS02006251 CONDUIT    407.93     0  01:44     19.84    1.50    1.00
  WS02006253WS02006251 CONDUIT   1353.86     0  02:21      3.52    4.06    1.00
  WS02006256WS02006235 CONDUIT    246.29     0  05:10      3.48    2.61    1.00
  WS02006280WS02006229 CONDUIT   2254.53     0  02:25      4.23    0.48    1.00
  WS02006284WS02006280 CONDUIT   2254.20     0  02:25      3.01    0.94    1.00
  WS02006287WS02006284 CONDUIT   2254.24     0  02:25      2.87    1.04    1.00
  WSF200WS02003060     CONDUIT   1268.11     0  02:25      2.27    0.28    0.50
  YS02001580YS02001583 CONDUIT     81.60     0  02:15      0.54    0.32    1.00
  YS02001583YS02001586 CONDUIT    129.58     0  02:15      0.53    0.20    1.00
  YS02001586YS02001590 CONDUIT    317.82     0  02:30      1.24    0.56    1.00
  YS02001590YS02001593 CONDUIT    317.95     0  02:32      1.12    2.00    1.00
  YS02001593YS02001596 CONDUIT    317.87     0  02:34      1.70    0.50    1.00
  YS02001596YS02001600 CONDUIT    317.92     0  02:36      1.15    0.62    1.00
  YS02001600YS02001601 CONDUIT    317.77     0  02:30      1.12    0.55    1.00
  YS02001601YS02001602 CONDUIT    494.90     0  02:15      1.75    1.79    1.00
  YS02001602YS02001605 CONDUIT    495.26     0  02:15      1.75   10.48    1.00
  YS02001605YS02001607 CONDUIT    495.62     0  02:15      1.75    2.72    1.00
  YS02001607YS02001610 CONDUIT    495.35     0  02:14      0.63    0.47    1.00
  YS02001610YS02001613 CONDUIT    495.83     0  02:15      0.63    0.57    1.00
  YS02001613YS02001616 CONDUIT    494.73     0  02:15      0.64    0.42    1.00
  YS02001616YS02001619 CONDUIT    496.49     0  02:15      0.66    0.86    1.00
  YS02001619YS02001622 CONDUIT    930.77     0  02:20      1.19    1.37    1.00
  YS02001622YS02001625 CONDUIT    930.17     0  02:20      1.18    0.50    1.00
  YS02001625YS02001629 CONDUIT    930.04     0  02:20      1.18    0.44    1.00
  YS02001629YS02163301 CONDUIT    930.30     0  02:20      1.18    1.15    1.00
  YS02001633YS02163601 CONDUIT   1374.23     0  02:20      1.75    1.44    1.00
  YS02001641YS02001644 CONDUIT   1372.15     0  02:20      1.75    4.44    1.00
  YS02001644YS02001647 CONDUIT   1773.46     0  02:20      2.26    1.04    1.00
  YS02001647YS02001649 CONDUIT   1790.69     0  02:20      2.36    0.95    1.00
  YS02001649YS02001757 CONDUIT   2043.83     0  02:20      2.61    1.24    1.00
  YS02001652YS02001649 CONDUIT    613.37     0  02:25      0.78    0.30    1.00
  YS02001655YS02001652 CONDUIT    613.82     0  02:25      1.21    0.30    1.00
  YS02001658YS02001655 CONDUIT    613.37     0  02:25      1.84    0.26    1.00
  YS02001661YS02001658 CONDUIT    614.21     0  02:25      2.30    0.24    0.87
  YS02001664YS02001661 CONDUIT    552.23     0  02:25      2.28    0.17    0.55
  YS02001745YS02001748 CONDUIT    565.14     0  02:25      2.16    0.22    0.68
  YS02001748YS02001751 CONDUIT    496.02     0  02:26      1.67    0.25    1.00
  YS02001751YS02001754 CONDUIT    443.32     0  02:25      1.36    0.21    1.00
  YS02001754YS02001757 CONDUIT    444.56     0  02:25      0.57    0.18    1.00
  YS02001757CaochengTiaoxuchi CONDUIT   3341.22     0  02:25      5.81    1.45    1.00
  YS02001759YS02001757 CONDUIT   1180.60     0  02:25      1.50    0.84    1.00
  YS02001762YS02001759 CONDUIT    696.00     0  02:25      0.89    0.80    1.00
  YS02001765YS02001762 CONDUIT    695.48     0  02:25      0.89    0.65    1.00
  YS02001767YS02001765 CONDUIT    694.98     0  02:25      0.88    0.87    1.00
  YS02001770YS02001767 CONDUIT    694.07     0  02:25      0.88    2.75    1.00
  YS02001774YS02001770 CONDUIT    211.93     0  02:21      0.27    0.14    1.00
  YS02001779YS02001774 CONDUIT    217.19     0  02:21      0.28    0.11    1.00
  YS02001783YS02001784 CONDUIT   1152.93     0  02:23      2.29    1.59    1.00
  YS02001784YS02001785 CONDUIT   1153.57     0  02:23      2.29    2.68    1.00
  YS02001786YS02001788 CONDUIT   1153.67     0  02:22      2.46    2.22    0.89
  YS02001788YS02001790 CONDUIT   1166.45     0  02:24      2.72    0.86    0.83
  YS02001790YS02001791 CONDUIT   1276.18     0  02:23      3.41    1.39    0.70
  YS02001791YS02001793 CONDUIT   1232.08     0  02:21      6.73    0.53    0.43
  YS02001793JiankangQianchi CONDUIT   1274.99     0  02:21     24.60    0.10    0.58
  YS02001882YS02001884 CONDUIT     37.10     0  02:18      0.10    0.04    1.00
  YS02001884YS02001887 CONDUIT     62.92     0  02:17      0.08    0.08    1.00
  YS02001887YS02001890 CONDUIT    516.22     0  02:25      0.66    0.88    1.00
  YS02001890YS02001895 CONDUIT    509.05     0  02:25      0.65    0.24    1.00
  YS02001895YS02001898 CONDUIT    509.11     0  02:25      0.65    0.88    1.00
  YS02001898YS02001901 CONDUIT    509.08     0  02:25      0.65    0.33    1.00
  YS02001901YS02001904 CONDUIT    509.16     0  02:25      0.65    0.79    1.00
  YS02001904YS02001907 CONDUIT    509.19     0  02:25      0.65    0.18    1.00
  YS02001907YS02006553 CONDUIT    793.65     0  02:35      0.88    0.93    1.00
  YS02001910YS02001907 CONDUIT    955.90     0  02:22      1.22    0.54    1.00
  YS02001915YS02001910 CONDUIT    955.59     0  02:22      1.22    0.47    1.00
  YS02001918YS02001915 CONDUIT    436.42     0  02:22      0.56    0.24    1.00
  YS02001920YS02001918 CONDUIT    436.32     0  02:22      0.66    0.42    1.00
  YS02001923YS02001920 CONDUIT    433.02     0  02:22      0.69    0.19    1.00
  YS02001926YS02001923 CONDUIT    377.91     0  02:21      0.95    0.54    1.00
  YS02001929YS02001926 CONDUIT    373.56     0  02:21      1.08    0.18    1.00
  YS02006553YS02006556 CONDUIT    793.59     0  02:35      1.01    0.68    1.00
  YS02006556YS02006558 CONDUIT    796.79     0  02:35      1.01    0.63    1.00
  YS02006558YS02006561 CONDUIT   1162.26     0  02:20      4.11    2.57    1.00
  YS02006561YS02001783 CONDUIT   1152.60     0  02:23      2.29    0.60    1.00
  YS02163301YS02001633 CONDUIT    930.64     0  02:20      1.18    0.87    1.00
  YS02163601YS02164001 CONDUIT   1374.21     0  02:20      1.75    1.22    1.00
  YS02164001YS02001641 CONDUIT   1373.01     0  02:20      1.75    1.87    1.00
  YSB1154YSB6556       CONDUIT    286.05     0  02:25      0.74    0.51    1.00
  YSB1171HS02004479    CONDUIT    399.02     0  02:20      0.79    0.27    1.00
  YSB1174YSB1171       CONDUIT    242.21     0  02:25      0.63    0.37    1.00
  YSB6556YSB1171       CONDUIT    286.35     0  02:25      0.74    0.29    1.00
  CC-R1                PUMP       683.00     0  00:00              1.00
  CC-R2                PUMP       683.00     0  00:00              1.00
  CC-S1                PUMP       200.00     0  00:20              1.00
  CC-S2                PUMP       200.00     0  00:20              1.00
  JK-R1                PUMP      1000.00     0  00:00              1.00
  JK-R2                PUMP      1000.00     0  02:10              1.00
  JK-S                 PUMP       300.00     0  00:30              1.00
  XR-1                 PUMP        95.00     0  00:10              1.00
  XR-2                 PUMP        95.00     0  00:29              1.00
  XR-3                 PUMP         0.00     0  00:00              0.00
  XR-4                 PUMP         0.00     0  00:00              0.00
  
  
  ***************************
  Flow Classification Summary
  ***************************
  
  -------------------------------------------------------------------------------------
                      Adjusted    ---------- Fraction of Time in Flow Class ---------- 
                       /Actual         Up    Down  Sub   Sup   Up    Down  Norm  Inlet 
  Conduit               Length    Dry  Dry   Dry   Crit  Crit  Crit  Crit  Ltd   Ctrl  
  -------------------------------------------------------------------------------------
  1                       1.00   0.00  0.00  0.00  0.00  1.00  0.00  0.00  0.47  0.00
  HS02004478WS02006287    1.00   0.11  0.00  0.00  0.59  0.30  0.00  0.00  0.46  0.00
  HS02004479HS02004480    1.00   0.01  0.00  0.00  0.99  0.00  0.00  0.00  0.15  0.00
  HS02004480HS02004478    1.00   0.08  0.00  0.00  0.50  0.00  0.00  0.42  0.00  0.00
  HS02004770HS02004777    1.00   0.00  0.07  0.00  0.93  0.00  0.00  0.00  0.04  0.00
  HS02004777HS02004785    1.00   0.00  0.00  0.00  1.00  0.00  0.00  0.00  0.17  0.00
  HS02004785HS02004788    1.00   0.00  0.00  0.00  1.00  0.00  0.00  0.00  0.00  0.00
  HS02004788HS02004792    1.00   0.00  0.00  0.00  1.00  0.00  0.00  0.00  0.90  0.00
  HS02004792HS02004799    1.00   0.00  0.00  0.00  1.00  0.00  0.00  0.00  0.84  0.00
  HS02004799HS02004480    1.00   0.00  0.01  0.00  0.90  0.00  0.09  0.00  0.00  0.00
  HS02004802HS02004478    1.00   0.08  0.01  0.00  0.92  0.00  0.00  0.00  0.03  0.00
  HS02004807HS02004802    1.00   0.07  0.00  0.00  0.91  0.00  0.00  0.02  0.00  0.00
  HS02004817HS02004807    1.00   0.00  0.07  0.00  0.93  0.00  0.00  0.00  0.01  0.00
  HS02004817HS02004824    1.00   0.00  0.00  0.00  1.00  0.00  0.00  0.00  0.78  0.00
  HS02004824HS02004830    1.00   0.00  0.00  0.00  1.00  0.00  0.00  0.00  0.02  0.00
  HS02004830HS02004837    1.00   0.00  0.00  0.00  1.00  0.00  0.00  0.00  0.87  0.00
  HS02004837HS02004842    1.00   0.00  0.00  0.00  1.00  0.00  0.00  0.00  0.14  0.00
  HS02004842HS02004848    1.00   0.00  0.07  0.00  0.93  0.00  0.00  0.00  0.41  0.00
  HS02004848HS02004852    1.00   0.07  0.00  0.00  0.93  0.00  0.00  0.00  0.60  0.00
  HS02004852HS02004856    1.00   0.07  0.01  0.00  0.92  0.00  0.00  0.00  0.58  0.00
  HS02004856HS02004862    1.00   0.00  0.11  0.00  0.89  0.00  0.00  0.00  0.67  0.00
  HS02004862HS02004870    1.00   0.00  0.00  0.00  1.00  0.00  0.00  0.00  0.05  0.00
  HS02004870HS02004876    1.00   0.00  0.00  0.00  1.00  0.00  0.00  0.00  0.84  0.00
  HS02004876HS02004881    1.00   0.00  0.00  0.00  0.78  0.22  0.00  0.00  0.00  0.00
  HS02004881HS02006253    1.00   0.01  0.00  0.00  0.78  0.03  0.00  0.17  0.57  0.00
  HS02004901HS02004770    1.00   0.07  0.00  0.00  0.93  0.00  0.00  0.00  0.00  0.00
  WS02001211WS02001212    1.00   0.00  0.01  0.00  0.99  0.00  0.00  0.00  0.00  0.00
  WS02001212WS02001213    1.00   0.01  0.00  0.00  0.53  0.00  0.46  0.00  0.00  0.00
  WS02001213WS02003059    1.00   0.00  0.00  0.00  1.00  0.00  0.00  0.00  0.00  0.00
  WS02003059WS02003060    1.00   0.00  0.00  0.00  1.00  0.00  0.00  0.00  0.04  0.00
  WS02003060WS02003069    1.00   0.00  0.00  0.00  0.99  0.01  0.00  0.00  0.16  0.00
  WS02003066WSF200        1.00   0.04  0.00  0.00  0.00  0.96  0.00  0.00  0.53  0.00
  WS02003067WS02003066    1.00   0.04  0.00  0.00  0.96  0.00  0.00  0.00  0.00  0.00
  WS02003069WS02003072    1.00   0.00  0.00  0.00  1.00  0.00  0.00  0.00  0.31  0.00
  WS02003072WS02003073    1.00   0.00  0.00  0.00  0.00  0.00  0.00  1.00  0.00  0.00
  WS02004138WS02004139    1.00   0.00  0.00  0.00  0.99  0.00  0.00  0.00  0.97  0.00
  WS02004139WS02001211    1.00   0.00  0.00  0.00  1.00  0.00  0.00  0.00  0.01  0.00
  WS02004401WS02004402    1.00   0.00  0.00  0.00  1.00  0.00  0.00  0.00  0.00  0.00
  WS02004402WS02004403    1.00   0.00  0.00  0.00  1.00  0.00  0.00  0.00  0.00  0.00
  WS02004403WS02004404    1.00   0.00  0.00  0.00  1.00  0.00  0.00  0.00  0.00  0.00
  WS02004404WS02004405    1.00   0.00  0.00  0.00  1.00  0.00  0.00  0.00  0.00  0.00
  WS02004405WS02004406    1.00   0.00  0.00  0.00  1.00  0.00  0.00  0.00  0.00  0.00
  WS02004406WS02004407    1.00   0.00  0.00  0.00  1.00  0.00  0.00  0.00  0.01  0.00
  WS02004407WS02004409    1.00   0.00  0.00  0.00  0.99  0.01  0.00  0.00  0.84  0.00
  WS02004409WS02004410    1.00   0.00  0.00  0.00  1.00  0.00  0.00  0.00  0.03  0.00
  WS02004410WS02004411    1.00   0.00  0.00  0.00  1.00  0.00  0.00  0.00  0.03  0.00
  WS02004411WS02004412    1.00   0.00  0.00  0.00  1.00  0.00  0.00  0.00  0.01  0.00
  WS02004412WS02004413    1.00   0.00  0.00  0.00  1.00  0.00  0.00  0.00  0.02  0.00
  WS02004413WS02003067    1.00   0.00  0.03  0.00  0.00  0.00  0.96  0.00  0.00  0.00
  WS02006109WS02006110    1.00   0.00  0.00  0.00  1.00  0.00  0.00  0.00  0.00  0.00
  WS02006110WS02006113    1.00   0.00  0.00  0.00  1.00  0.00  0.00  0.00  0.00  0.00
  WS02006111WS02006112    1.00   0.00  0.00  0.00  1.00  0.00  0.00  0.00  0.72  0.00
  WS02006112WS02006115    1.00   0.00  0.00  0.00  1.00  0.00  0.00  0.00  0.00  0.00
  WS02006113WS02006111    1.00   0.00  0.00  0.00  0.23  0.77  0.00  0.00  0.19  0.00
  WS02006115WS02006116    1.00   0.00  0.00  0.00  1.00  0.00  0.00  0.00  0.00  0.00
  WS02006116WS02004401    1.00   0.00  0.00  0.00  1.00  0.00  0.00  0.00  0.00  0.00
  WS02006228WS02006109    1.00   0.00  0.00  0.00  1.00  0.00  0.00  0.00  0.00  0.00
  WS02006229WS02006228    1.00   0.00  0.00  0.00  1.00  0.00  0.00  0.00  0.00  0.00
  WS02006230WS02006229    1.00   0.00  0.00  0.00  1.00  0.00  0.00  0.00  0.01  0.00
  WS02006231WS02006230    1.00   0.00  0.00  0.00  0.57  0.00  0.43  0.00  0.00  0.00
  WS02006232WS02006231    1.00   0.00  0.00  0.00  0.99  0.00  0.00  0.00  0.01  0.00
  WS02006234WS02006232    1.00   0.00  0.00  0.00  1.00  0.00  0.00  0.00  0.05  0.00
  WS02006235WS02006234    1.00   0.01  0.00  0.00  0.98  0.00  0.01  0.00  0.00  0.00
  WS02006238WS02006235    1.00   0.01  0.00  0.00  0.99  0.00  0.00  0.00  0.00  0.00
  WS02006239WS02006238    1.00   0.01  0.00  0.00  0.99  0.00  0.00  0.00  0.00  0.00
  WS02006240WS02006239    1.00   0.01  0.00  0.00  0.97  0.00  0.00  0.01  0.04  0.00
  WS02006242WS02006240    1.00   0.01  0.00  0.00  0.98  0.00  0.01  0.00  0.00  0.00
  WS02006243WS02006242    1.00   0.01  0.00  0.00  0.98  0.00  0.00  0.01  0.19  0.00
  WS02006245WS02006243    1.00   0.01  0.00  0.00  0.94  0.00  0.00  0.05  0.00  0.00
  WS02006247WS02006245    1.00   0.01  0.00  0.00  0.96  0.00  0.00  0.03  0.00  0.00
  WS02006248WS02006247    1.00   0.01  0.00  0.00  0.98  0.00  0.00  0.02  0.22  0.00
  WS02006249WS02006248    1.00   0.00  0.01  0.00  0.87  0.00  0.13  0.00  0.00  0.00
  WS02006251WS02006249    1.00   0.00  0.00  0.00  1.00  0.00  0.00  0.00  0.25  0.00
  WS02006252WS02006251    1.00   0.04  0.05  0.00  0.25  0.01  0.64  0.00  0.00  0.00
  WS02006253WS02006251    1.00   0.01  0.00  0.00  0.99  0.00  0.00  0.00  0.00  0.00
  WS02006256WS02006235    1.00   0.01  0.00  0.00  0.99  0.00  0.00  0.00  0.00  0.00
  WS02006280WS02006229    1.00   0.08  0.00  0.00  0.17  0.03  0.00  0.71  0.01  0.00
  WS02006284WS02006280    1.00   0.08  0.00  0.00  0.12  0.01  0.00  0.78  0.00  0.00
  WS02006287WS02006284    1.00   0.05  0.05  0.00  0.46  0.43  0.00  0.00  0.53  0.00
  WSF200WS02003060        1.00   0.00  0.04  0.00  0.45  0.51  0.00  0.00  0.40  0.00
  YS02001580YS02001583    1.00   0.26  0.46  0.00  0.29  0.00  0.00  0.00  0.53  0.00
  YS02001583YS02001586    1.00   0.10  0.54  0.00  0.36  0.00  0.00  0.00  0.53  0.00
  YS02001586YS02001590    1.00   0.07  0.00  0.00  0.63  0.10  0.00  0.21  0.52  0.00
  YS02001590YS02001593    1.00   0.07  0.01  0.00  0.14  0.00  0.78  0.00  0.00  0.00
  YS02001593YS02001596    1.00   0.08  0.00  0.00  0.16  0.01  0.00  0.74  0.03  0.00
  YS02001596YS02001600    1.00   0.08  0.00  0.00  0.30  0.01  0.00  0.60  0.09  0.00
  YS02001600YS02001601    1.00   0.07  0.01  0.00  0.92  0.00  0.00  0.00  0.47  0.00
  YS02001601YS02001602    1.00   0.07  0.01  0.00  0.92  0.00  0.00  0.00  0.00  0.00
  YS02001602YS02001605    1.00   0.08  0.00  0.00  0.92  0.00  0.00  0.00  0.00  0.00
  YS02001605YS02001607    1.00   0.08  0.00  0.00  0.92  0.00  0.00  0.00  0.00  0.00
  YS02001607YS02001610    1.00   0.08  0.01  0.00  0.92  0.00  0.00  0.00  0.02  0.00
  YS02001610YS02001613    1.00   0.07  0.00  0.00  0.93  0.00  0.00  0.00  0.01  0.00
  YS02001613YS02001616    1.00   0.07  0.00  0.00  0.93  0.00  0.00  0.00  0.01  0.00
  YS02001616YS02001619    1.00   0.07  0.00  0.00  0.93  0.00  0.00  0.00  0.00  0.00
  YS02001619YS02001622    1.00   0.07  0.00  0.00  0.93  0.00  0.00  0.00  0.04  0.00
  YS02001622YS02001625    1.00   0.07  0.00  0.00  0.93  0.00  0.00  0.00  0.07  0.00
  YS02001625YS02001629    1.00   0.07  0.05  0.00  0.34  0.00  0.55  0.00  0.00  0.00
  YS02001629YS02163301    1.00   0.10  0.01  0.00  0.89  0.00  0.00  0.00  0.00  0.00
  YS02001633YS02163601    1.00   0.00  0.00  0.00  1.00  0.00  0.00  0.00  0.20  0.00
  YS02001641YS02001644    1.00   0.00  0.00  0.00  1.00  0.00  0.00  0.00  0.00  0.00
  YS02001644YS02001647    1.00   0.00  0.12  0.00  0.88  0.00  0.00  0.00  0.00  0.00
  YS02001647YS02001649    1.00   0.00  0.12  0.00  0.61  0.28  0.00  0.00  0.37  0.00
  YS02001649YS02001757    1.00   0.00  0.00  0.00  0.71  0.29  0.00  0.00  0.44  0.00
  YS02001652YS02001649    1.00   0.00  0.00  0.00  0.97  0.03  0.00  0.00  0.59  0.00
  YS02001655YS02001652    1.00   0.00  0.00  0.00  0.39  0.01  0.00  0.60  0.07  0.00
  YS02001658YS02001655    1.00   0.00  0.09  0.00  0.72  0.19  0.00  0.00  0.55  0.00
  YS02001661YS02001658    1.00   0.09  0.00  0.00  0.45  0.46  0.00  0.00  0.64  0.00
  YS02001664YS02001661    1.00   0.07  0.00  0.00  0.75  0.18  0.00  0.00  0.82  0.00
  YS02001745YS02001748    1.00   0.00  0.00  0.00  0.20  0.01  0.00  0.80  0.15  0.00
  YS02001748YS02001751    1.00   0.00  0.00  0.00  0.81  0.19  0.00  0.00  0.57  0.00
  YS02001751YS02001754    1.00   0.00  0.00  0.00  0.35  0.01  0.00  0.63  0.04  0.00
  YS02001754YS02001757    1.00   0.00  0.00  0.00  1.00  0.00  0.00  0.00  0.68  0.00
  YS02001757CaochengTiaoxuchi    1.00   0.00  0.00  0.00  0.71  0.29  0.00  0.00  0.39  0.00
  YS02001759YS02001757    1.00   0.00  0.00  0.00  1.00  0.00  0.00  0.00  0.47  0.00
  YS02001762YS02001759    1.00   0.00  0.00  0.00  1.00  0.00  0.00  0.00  0.06  0.00
  YS02001765YS02001762    1.00   0.00  0.00  0.00  1.00  0.00  0.00  0.00  0.53  0.00
  YS02001767YS02001765    1.00   0.00  0.00  0.00  1.00  0.00  0.00  0.00  0.00  0.00
  YS02001770YS02001767    1.00   0.00  0.00  0.00  1.00  0.00  0.00  0.00  0.00  0.00
  YS02001774YS02001770    1.00   0.00  0.08  0.00  0.92  0.00  0.00  0.00  0.05  0.00
  YS02001779YS02001774    1.00   0.00  0.00  0.00  1.00  0.00  0.00  0.00  0.60  0.00
  YS02001783YS02001784    1.00   0.00  0.12  0.00  0.88  0.00  0.00  0.00  0.40  0.00
  YS02001784YS02001785    1.00   0.00  0.00  0.00  1.00  0.00  0.00  0.00  0.23  0.00
  YS02001786YS02001788    1.00   0.00  0.00  0.00  0.64  0.36  0.00  0.00  0.00  0.00
  YS02001788YS02001790    1.00   0.00  0.00  0.00  0.16  0.84  0.00  0.00  0.74  0.00
  YS02001790YS02001791    1.00   0.00  0.00  0.00  0.00  1.00  0.00  0.00  0.21  0.00
  YS02001791YS02001793    1.00   0.00  0.00  0.00  0.00  1.00  0.00  0.00  0.01  0.00
  YS02001793JiankangQianchi    1.00   0.00  0.00  0.00  0.11  0.89  0.00  0.00  0.23  0.00
  YS02001882YS02001884    1.00   0.09  0.01  0.00  0.89  0.00  0.00  0.00  0.00  0.00
  YS02001884YS02001887    1.00   0.02  0.03  0.00  0.94  0.00  0.00  0.00  0.00  0.00
  YS02001887YS02001890    1.00   0.00  0.00  0.00  0.99  0.00  0.01  0.00  0.00  0.00
  YS02001890YS02001895    1.00   0.00  0.11  0.00  0.89  0.00  0.00  0.00  0.00  0.00
  YS02001895YS02001898    1.00   0.11  0.00  0.00  0.87  0.00  0.02  0.00  0.00  0.00
  YS02001898YS02001901    1.00   0.11  0.00  0.00  0.89  0.00  0.00  0.00  0.02  0.00
  YS02001901YS02001904    1.00   0.11  0.00  0.00  0.89  0.00  0.00  0.00  0.00  0.00
  YS02001904YS02001907    1.00   0.00  0.11  0.00  0.89  0.00  0.00  0.00  0.00  0.00
  YS02001907YS02006553    1.00   0.00  0.01  0.00  0.99  0.00  0.00  0.00  0.00  0.00
  YS02001910YS02001907    1.00   0.00  0.00  0.00  0.99  0.00  0.00  0.01  0.16  0.00
  YS02001915YS02001910    1.00   0.00  0.00  0.00  0.98  0.02  0.00  0.00  0.23  0.00
  YS02001918YS02001915    1.00   0.00  0.00  0.00  1.00  0.00  0.00  0.00  0.69  0.00
  YS02001920YS02001918    1.00   0.00  0.00  0.00  1.00  0.00  0.00  0.00  0.01  0.00
  YS02001923YS02001920    1.00   0.00  0.00  0.00  1.00  0.00  0.00  0.00  0.92  0.00
  YS02001926YS02001923    1.00   0.00  0.04  0.00  0.06  0.00  0.90  0.00  0.00  0.00
  YS02001929YS02001926    1.00   0.00  0.07  0.00  0.93  0.00  0.00  0.00  0.78  0.00
  YS02006553YS02006556    1.00   0.00  0.00  0.00  1.00  0.00  0.00  0.00  0.04  0.00
  YS02006556YS02006558    1.00   0.00  0.00  0.00  1.00  0.00  0.00  0.00  0.00  0.00
  YS02006558YS02006561    1.00   0.12  0.00  0.00  0.06  0.82  0.00  0.00  0.26  0.00
  YS02006561YS02001783    1.00   0.12  0.00  0.00  0.10  0.78  0.00  0.00  0.59  0.00
  YS02163301YS02001633    1.00   0.00  0.10  0.00  0.90  0.00  0.00  0.00  0.00  0.00
  YS02163601YS02164001    1.00   0.00  0.04  0.00  0.96  0.00  0.00  0.00  0.00  0.00
  YS02164001YS02001641    1.00   0.00  0.04  0.00  0.96  0.00  0.00  0.00  0.07  0.00
  YSB1154YSB6556          1.00   0.07  0.00  0.00  0.93  0.00  0.00  0.00  0.02  0.00
  YSB1171HS02004479       1.00   0.01  0.00  0.00  0.98  0.00  0.00  0.00  0.14  0.00
  YSB1174YSB1171          1.00   0.01  0.03  0.00  0.95  0.00  0.00  0.00  0.00  0.00
  YSB6556YSB1171          1.00   0.01  0.06  0.00  0.93  0.00  0.00  0.00  0.00  0.00
  
  
  *************************
  Conduit Surcharge Summary
  *************************
  
  ----------------------------------------------------------------------------
                                                           Hours        Hours 
                         --------- Hours Full --------   Above Full   Capacity
  Conduit                Both Ends  Upstream  Dnstream   Normal Flow   Limited
  ----------------------------------------------------------------------------
  HS02004478WS02006287        0.33      0.33      0.50      0.01         0.01
  HS02004479HS02004480        0.50      0.50      0.53      0.01         0.01
  HS02004480HS02004478        0.43      0.50      0.43      1.57         0.43
  HS02004770HS02004777        0.40      0.40      0.41      0.10         0.07
  HS02004777HS02004785        0.36      0.36      0.41      0.01         0.01
  HS02004785HS02004788        0.35      0.36      0.35      1.24         0.34
  HS02004788HS02004792        0.35      0.35      0.46      0.01         0.01
  HS02004792HS02004799        0.46      0.46      0.59      0.01         0.01
  HS02004799HS02004480        0.50      0.50      0.59      0.68         0.01
  HS02004802HS02004478        0.44      0.44      0.52      0.01         0.01
  HS02004807HS02004802        0.49      0.49      0.51      0.12         0.13
  HS02004817HS02004807        0.49      0.49      1.06      0.01         0.01
  HS02004817HS02004824        0.35      0.35      1.06      0.01         0.01
  HS02004824HS02004830        0.32      0.32      0.35      0.01         0.01
  HS02004830HS02004837        0.29      0.29      0.32      0.01         0.01
  HS02004837HS02004842        0.29      0.29      0.41      0.01         0.01
  HS02004842HS02004848        0.23      0.23      0.41      0.01         0.01
  HS02004848HS02004852        0.23      0.23      0.25      0.04         0.01
  HS02004852HS02004856        0.25      0.25      0.27      0.03         0.01
  HS02004856HS02004862        0.23      0.23      0.27      0.01         0.01
  HS02004862HS02004870        0.27      0.27      0.28      0.03         0.03
  HS02004870HS02004876        0.28      0.28      0.33      0.01         0.01
  HS02004876HS02004881        0.30      0.33      0.30      1.29         0.30
  HS02004881HS02006253        0.30      0.30      1.41      0.01         0.01
  HS02004901HS02004770        0.40      0.40      0.41      0.01         0.01
  WS02003072WS02003073        0.01      0.01      0.01      2.90         0.01
  WS02004401WS02004402        1.44      1.44      1.50      1.12         1.12
  WS02004402WS02004403        1.50      1.50      1.53      1.42         1.42
  WS02004403WS02004404        1.53      1.53      1.72      0.01         0.01
  WS02004404WS02004405        1.67      1.72      1.67      4.82         1.67
  WS02004405WS02004406        1.61      1.67      1.61      1.91         1.61
  WS02004406WS02004407        0.01      0.01      1.61      0.01         0.01
  WS02004407WS02004409        0.01      0.01      0.83      0.01         0.01
  WS02004409WS02004410        0.79      0.83      0.79      1.31         0.79
  WS02004410WS02004411        0.71      0.79      0.71      1.35         0.71
  WS02004411WS02004412        0.62      0.71      0.62      1.37         0.62
  WS02004412WS02004413        0.62      0.62      1.04      0.01         0.01
  WS02004413WS02003067        0.01      0.01      1.04      0.01         0.01
  WS02006109WS02006110        1.82      1.83      2.59      1.83         0.01
  WS02006110WS02006113        1.03      1.03      2.56      0.26         0.01
  WS02006111WS02006112        1.00      1.01      2.79      0.01         0.01
  WS02006112WS02006115        1.33      1.33      2.02      0.01         0.01
  WS02006113WS02006111        1.02      1.03      1.02      1.08         1.02
  WS02006115WS02006116        1.33      1.33      1.34      1.31         1.31
  WS02006116WS02004401        1.43      1.43      1.44      1.37         1.36
  WS02006228WS02006109        2.51      2.59      2.51      3.54         2.51
  WS02006229WS02006228        2.50      2.52      2.50      2.93         2.50
  WS02006230WS02006229        2.70      2.83      2.70      4.88         1.85
  WS02006231WS02006230        1.77      1.77      1.95      4.28         0.84
  WS02006232WS02006231        1.91      1.91      2.36      0.01         0.11
  WS02006234WS02006232        2.21      2.21      2.36      0.01         0.01
  WS02006235WS02006234        2.17      2.17      2.24      3.96         0.82
  WS02006238WS02006235        2.26      2.26      2.34      0.01         0.27
  WS02006239WS02006238        2.29      2.30      2.29      1.77         0.74
  WS02006240WS02006239        2.21      2.22      2.22      1.72         0.68
  WS02006242WS02006240        2.20      2.20      2.44      2.19         0.69
  WS02006243WS02006242        2.16      2.16      2.33      0.01         0.01
  WS02006245WS02006243        2.03      2.04      2.13      1.01         0.60
  WS02006247WS02006245        2.01      2.04      2.01      3.56         1.05
  WS02006248WS02006247        1.93      1.93      2.03      0.01         0.01
  WS02006249WS02006248        1.91      1.91      1.94      2.42         0.01
  WS02006251WS02006249        1.90      1.93      1.94      1.97         1.48
  WS02006252WS02006251        2.20      2.21      2.23      1.43         0.01
  WS02006253WS02006251        1.92      1.92      1.98      0.63         0.05
  WS02006256WS02006235        4.21      4.22      5.57      0.21         0.01
  WS02006280WS02006229        0.62      0.62      0.73      0.01         0.01
  WS02006284WS02006280        0.53      0.53      0.60      0.01         0.01
  WS02006287WS02006284        0.42      0.42      0.54      0.16         0.16
  YS02001580YS02001583        0.42      0.42      0.47      0.01         0.01
  YS02001583YS02001586        0.43      0.43      0.55      0.01         0.01
  YS02001586YS02001590        0.55      0.55      0.62      0.01         0.01
  YS02001590YS02001593        0.63      0.63      0.64      0.64         0.01
  YS02001593YS02001596        0.64      0.64      0.74      0.01         0.01
  YS02001596YS02001600        0.80      0.80      0.91      0.01         0.01
  YS02001600YS02001601        0.98      0.98      1.37      0.01         0.01
  YS02001601YS02001602        1.20      1.20      1.42      0.91         0.01
  YS02001602YS02001605        1.14      1.14      1.20      2.21         0.01
  YS02001605YS02001607        1.10      1.14      1.16      1.19         1.05
  YS02001607YS02001610        0.60      0.60      0.63      0.01         0.01
  YS02001610YS02001613        0.59      0.59      0.63      0.01         0.01
  YS02001613YS02001616        0.54      0.54      0.59      0.01         0.01
  YS02001616YS02001619        0.53      0.53      0.54      0.01         0.01
  YS02001619YS02001622        0.53      0.53      0.53      0.65         0.51
  YS02001622YS02001625        0.53      0.53      0.73      0.01         0.01
  YS02001625YS02001629        0.48      0.48      0.73      0.01         0.01
  YS02001629YS02163301        0.73      0.73      0.75      0.29         0.24
  YS02001633YS02163601        0.78      0.78      1.04      0.44         0.45
  YS02001641YS02001644        0.65      0.71      0.65      1.39         0.65
  YS02001644YS02001647        0.36      0.36      0.65      0.04         0.01
  YS02001647YS02001649        0.36      0.36      0.55      0.01         0.01
  YS02001649YS02001757        0.54      0.55      0.95      0.35         0.27
  YS02001652YS02001649        0.27      0.27      0.55      0.01         0.01
  YS02001655YS02001652        0.12      0.12      0.25      0.01         0.01
  YS02001658YS02001655        0.02      0.02      0.12      0.01         0.01
  YS02001661YS02001658        0.01      0.01      0.02      0.01         0.01
  YS02001748YS02001751        0.01      0.01      0.04      0.01         0.01
  YS02001751YS02001754        0.04      0.04      0.12      0.01         0.01
  YS02001754YS02001757        0.14      0.14      0.95      0.01         0.01
  YS02001757CaochengTiaoxuchi        0.77      0.95      1.58      0.31         0.07
  YS02001759YS02001757        0.57      0.57      0.95      0.01         0.01
  YS02001762YS02001759        0.40      0.40      0.57      0.01         0.01
  YS02001765YS02001762        0.34      0.34      0.40      0.01         0.01
  YS02001767YS02001765        0.27      0.27      0.34      0.01         0.01
  YS02001770YS02001767        0.27      0.28      0.27      0.43         0.22
  YS02001774YS02001770        0.24      0.24      0.37      0.01         0.01
  YS02001779YS02001774        0.14      0.14      0.37      0.01         0.01
  YS02001783YS02001784        0.38      0.41      0.38      0.57         0.38
  YS02001784YS02001785        0.28      0.38      0.28      0.80         0.28
  YS02001786YS02001788        0.01      0.28      0.01      0.67         0.01
  YS02001790YS02001791        0.01      0.01      0.01      0.37         0.01
  YS02001793JiankangQianchi        0.01      0.01      0.31      0.01         0.01
  YS02001882YS02001884        0.35      0.35      0.36      0.01         0.01
  YS02001884YS02001887        0.39      0.39      0.40      0.01         0.01
  YS02001887YS02001890        0.41      0.41      0.42      0.01         0.01
  YS02001890YS02001895        0.34      0.34      0.44      0.01         0.01
  YS02001895YS02001898        0.34      0.34      0.34      0.01         0.01
  YS02001898YS02001901        0.34      0.34      0.39      0.01         0.01
  YS02001901YS02001904        0.37      0.37      0.39      0.01         0.01
  YS02001904YS02001907        0.37      0.37      0.66      0.01         0.01
  YS02001907YS02006553        0.80      0.80      0.88      0.01         0.01
  YS02001910YS02001907        0.44      0.44      0.64      0.01         0.01
  YS02001915YS02001910        0.35      0.35      0.44      0.01         0.01
  YS02001918YS02001915        0.26      0.26      0.35      0.01         0.01
  YS02001920YS02001918        0.26      0.26      0.28      0.01         0.01
  YS02001923YS02001920        0.22      0.22      0.28      0.01         0.01
  YS02001926YS02001923        0.01      0.01      0.01      0.01         0.01
  YS02001929YS02001926        0.01      0.01      0.01      0.01         0.01
  YS02006553YS02006556        0.53      0.53      0.66      0.01         0.01
  YS02006556YS02006558        0.59      0.59      0.67      0.01         0.01
  YS02006558YS02006561        0.30      0.52      0.30      0.75         0.30
  YS02006561YS02001783        0.24      0.24      0.41      0.01         0.01
  YS02163301YS02001633        0.75      0.75      0.82      0.01         0.01
  YS02163601YS02164001        0.71      0.71      1.04      0.22         0.01
  YS02164001YS02001641        0.70      0.71      0.71      0.72         0.65
  YSB1154YSB6556              0.56      0.56      0.71      0.01         0.01
  YSB1171HS02004479           0.45      0.45      0.71      0.01         0.01
  YSB1174YSB1171              0.63      0.63      0.96      0.01         0.01
  YSB6556YSB1171              0.56      0.56      1.12      0.01         0.01
  
  
  ***************
  Pumping Summary
  ***************
  
  ---------------------------------------------------------------------------------------------------------
                                                  Min       Avg       Max     Total     Power    % Time Off
                        Percent   Number of      Flow      Flow      Flow    Volume     Usage    Pump Curve
  Pump                 Utilized   Start-Ups       LPS       LPS       LPS  10^6 ltr     Kw-hr    Low   High
  ---------------------------------------------------------------------------------------------------------
  CC-R1                   55.46          11      0.00    594.39    683.00     6.223    106.63    0.0   74.9
  CC-R2                   24.87           7      0.00    515.69    683.00     2.502     42.80    0.0   77.7
  CC-S1                   61.18           8      0.00    178.83    200.00     2.215     14.88    0.0   41.6
  CC-S2                   36.16           8      0.00    152.18    200.00     1.163      8.49    0.0   53.8
  JK-R1                   63.83           9      0.00    259.80   1000.00     3.250     10.43    0.0    0.0
  JK-R2                   27.65           8      0.00    269.66   1000.00     1.245      3.72    0.0    0.0
  JK-S                    38.79           9      0.00     66.21    300.00     0.360      7.73    0.0    0.0
  XR-1                    97.20           1      0.00     95.00     95.00     1.995      8.83    0.0    0.0
  XR-2                    91.95           1      0.00     95.00     95.00     1.887      7.99    0.0    0.0
  XR-3                     0.00           0      0.00      0.00      0.00     0.000      0.00    0.0    0.0
  XR-4                     0.00           0      0.00      0.00      0.00     0.000      0.00    0.0    0.0
  

  Analysis begun on:  Mon Aug 22 16:56:22 2022
  Analysis ended on:  Mon Aug 22 16:56:27 2022
  Total elapsed time: 00:00:05