
  OWA STORM WATER MANAGEMENT MODEL - VERSION v5.1.14 (OWA 2022-07-31)
  --------------------------------------------------------------

  WARNING 04: minimum elevation drop used for Conduit WS02004404WS02004405
  WARNING 03: negative offset ignored for Link YS02001904YS02001907
  
  *********************************************************
  NOTE: The summary statistics displayed in this report are
  based on results found at every computational time step,  
  not just on results from each reporting time step.
  *********************************************************
  
  ****************
  Analysis Options
  ****************
  Flow Units ............... LPS
  Process Models:
    Rainfall/Runoff ........ YES
    RDII ................... NO
    Snowmelt ............... NO
    Groundwater ............ NO
    Flow Routing ........... YES
    Ponding Allowed ........ NO
    Water Quality .......... NO
  Infiltration Method ...... HORTON
  Flow Routing Method ...... DYNWAVE
  Surcharge Method ......... EXTRAN
  Starting Date ............ 01/01/2000 00:00:00
  Ending Date .............. 01/01/2000 06:00:00
  Antecedent Dry Days ...... 8.0
  Report Time Step ......... 00:01:00
  Wet Time Step ............ 00:01:00
  Dry Time Step ............ 00:01:00
  Routing Time Step ........ 30.00 sec
  Variable Time Step ....... YES
  Maximum Trials ........... 8
  Number of Threads ........ 4
  Head Tolerance ........... 0.001500 m
  
  
  **************************        Volume         Depth
  Runoff Quantity Continuity     hectare-m            mm
  **************************     ---------       -------
  Total Precipitation ......         4.745        78.329
  Evaporation Loss .........         0.000         0.000
  Infiltration Loss ........         0.249         4.114
  Surface Runoff ...........         4.431        73.139
  Final Storage ............         0.066         1.087
  Continuity Error (%) .....        -0.014
  
  
  **************************        Volume        Volume
  Flow Routing Continuity        hectare-m      10^6 ltr
  **************************     ---------     ---------
  Dry Weather Inflow .......         0.472         4.722
  Wet Weather Inflow .......         4.430        44.298
  Groundwater Inflow .......         0.000         0.000
  RDII Inflow ..............         0.000         0.000
  External Inflow ..........         0.078         0.784
  External Outflow .........         2.600        26.003
  Flooding Loss ............         2.289        22.894
  Evaporation Loss .........         0.000         0.000
  Exfiltration Loss ........         0.000         0.000
  Initial Stored Volume ....         0.303         3.031
  Final Stored Volume ......         0.554         5.538
  Continuity Error (%) .....        -3.029
  
  
  *************************
  Highest Continuity Errors
  *************************
  Node JK-storage (-30.39%)
  Node YS02001884 (5.43%)
  Node YS02001583 (-4.35%)
  Node HS02004842 (1.39%)
  Node WS02003059 (1.01%)
  
  
  ***************************
  Time-Step Critical Elements
  ***************************
  Link WS02006280WS02006229 (17.59%)
  Link WS02006235WS02006234 (16.85%)
  Link YS02001793JiankangQianchi (16.36%)
  Link WS02004404WS02004405 (12.13%)
  Link WS02003066WSF200 (9.81%)
  
  
  ********************************
  Highest Flow Instability Indexes
  ********************************
  Link WS02006113WS02006111 (48)
  Link WS02006111WS02006112 (47)
  Link WS02006110WS02006113 (39)
  Link WS02006238WS02006235 (30)
  Link WS02004404WS02004405 (28)
  
  
  *************************
  Routing Time Step Summary
  *************************
  Minimum Time Step           :     0.04 sec
  Average Time Step           :     1.99 sec
  Maximum Time Step           :     8.46 sec
  Percent in Steady State     :     0.00
  Average Iterations per Step :     3.48
  Percent Not Converging      :     9.64
  
  
  ***************************
  Subcatchment Runoff Summary
  ***************************
  
  ------------------------------------------------------------------------------------------------------------------------------
                            Total      Total      Total      Total     Imperv       Perv      Total       Total     Peak  Runoff
                           Precip      Runon       Evap      Infil     Runoff     Runoff     Runoff      Runoff   Runoff   Coeff
  Subcatchment                 mm         mm         mm         mm         mm         mm         mm    10^6 ltr      LPS
  ------------------------------------------------------------------------------------------------------------------------------
  sub0                      78.33       0.00       0.00       1.03      71.58       4.45      76.04        0.06    30.98   0.971
  sub1                      78.33       0.00       0.00       1.77      68.40       6.85      75.25        0.50   230.37   0.961
  sub10                     78.33       0.00       0.00       1.25      70.72       5.02      75.74        0.84   384.87   0.967
  sub11                     78.33       0.00       0.00       1.23      70.76       5.04      75.80        0.88   414.51   0.968
  sub12                     78.33       0.00       0.00       2.00      66.95       8.19      75.14        0.66   325.53   0.959
  sub14                     78.33       0.00       0.00       1.40      69.98       5.65      75.62        0.72   333.72   0.965
  sub15                     78.33       0.00       0.00       5.49      53.82      18.01      71.84        1.24   560.77   0.917
  sub16                     78.33       0.00       0.00       5.68      51.55      20.17      71.73        0.75   352.67   0.916
  sub17                     78.33       0.00       0.00       5.54      52.32      19.53      71.85        0.62   288.60   0.917
  sub2                      78.33       0.00       0.00       7.83      48.38      21.16      69.54        0.65   266.50   0.888
  sub22                     78.33       0.00       0.00       8.31      43.84      25.37      69.22        4.37  1915.90   0.884
  sub23                     78.33       0.00       0.00       6.78      48.46      22.20      70.67        3.37  1533.34   0.902
  sub3                      78.33       0.00       0.00       8.18      48.30      20.48      68.78        1.55   594.77   0.878
  sub4                      78.33       0.00       0.00       1.97      68.08       6.64      74.73        1.56   645.45   0.954
  sub5                      78.33       0.00       0.00       1.09      71.48       4.40      75.87        0.86   393.95   0.969
  sub60                     78.33       0.00       0.00       1.88      67.69       7.52      75.21        0.99   469.67   0.960
  sub61                     78.33       0.00       0.00       2.73      63.85      10.59      74.44        1.37   652.81   0.950
  sub62                     78.33       0.00       0.00       1.25      70.71       5.01      75.73        2.07   953.17   0.967
  sub63                     78.33       0.00       0.00       5.04      54.62      17.68      72.30        1.64   764.93   0.923
  sub64                     78.33       0.00       0.00       2.55      65.30       9.20      74.50        1.79   814.88   0.951
  sub65                     78.33       0.00       0.00       2.20      66.80       7.98      74.78        2.06   926.20   0.955
  sub66                     78.33       0.00       0.00       6.23      54.41      16.49      70.90        3.31  1327.18   0.905
  sub67                     78.33       0.00       0.00       1.20      70.80       5.06      75.86        1.41   692.65   0.968
  sub68                     78.33       0.00       0.00       2.26      66.13       8.71      74.84        2.06   959.54   0.955
  sub69                     78.33       0.00       0.00       2.04      66.37       9.71      76.09        2.82  1237.00   0.971
  sub7                      78.33       0.00       0.00       1.38      70.00       5.67      75.68        0.26   121.97   0.966
  sub70                     78.33       0.00       0.00       6.76      51.39      19.87      71.26        2.06   757.80   0.910
  sub71                     78.33       0.00       0.00       1.29      70.63       4.98      75.61        1.98   887.49   0.965
  sub72                     78.33       0.00       0.00       1.15      71.28       4.34      75.62        1.04   449.83   0.965
  sub8                      78.33       0.00       0.00       1.40      69.98       5.66      75.64        0.48   225.77   0.966
  sub9                      78.33       0.00       0.00       1.40      69.98       5.65      75.63        0.36   169.02   0.966
  
  
  ******************
  Node Depth Summary
  ******************
  
  ---------------------------------------------------------------------------------
                                 Average  Maximum  Maximum  Time of Max    Reported
                                   Depth    Depth      HGL   Occurrence   Max Depth
  Node                 Type       Meters   Meters   Meters  days hr:min      Meters
  ---------------------------------------------------------------------------------
  HS02004478           JUNCTION     0.36     1.58    10.81     0  02:07        1.58
  HS02004479           JUNCTION     0.45     1.70    10.90     0  01:57        1.66
  HS02004480           JUNCTION     0.42     1.67    10.91     0  01:57        1.63
  HS02004770           JUNCTION     0.40     1.42    11.25     0  01:53        1.42
  HS02004777           JUNCTION     0.43     1.48    11.28     0  01:53        1.45
  HS02004785           JUNCTION     0.31     1.45    11.35     0  01:53        1.34
  HS02004788           JUNCTION     0.27     1.42    11.32     0  01:53        1.33
  HS02004792           JUNCTION     0.36     1.60    11.12     0  01:51        1.60
  HS02004799           JUNCTION     0.49     1.76    10.97     0  01:57        1.76
  HS02004802           JUNCTION     0.47     1.80    10.93     0  02:04        1.79
  HS02004807           JUNCTION     0.45     1.92    11.09     0  02:04        1.92
  HS02004817           JUNCTION     0.77     2.38    11.23     0  01:57        2.37
  HS02004824           JUNCTION     0.31     1.96    11.36     0  01:57        1.95
  HS02004830           JUNCTION     0.30     1.97    11.44     0  01:57        1.90
  HS02004837           JUNCTION     0.25     1.94    11.52     0  01:57        1.81
  HS02004842           JUNCTION     0.55     2.22    11.49     0  01:57        2.13
  HS02004848           JUNCTION     0.23     1.95    11.56     0  01:57        1.79
  HS02004852           JUNCTION     0.24     1.98    11.49     0  01:57        1.84
  HS02004856           JUNCTION     0.30     1.97    11.39     0  01:57        1.90
  HS02004862           JUNCTION     0.26     1.90    11.29     0  01:57        1.87
  HS02004870           JUNCTION     0.25     1.86    11.15     0  02:09        1.86
  HS02004876           JUNCTION     0.31     1.95    10.98     0  02:09        1.94
  HS02004881           JUNCTION     0.23     1.71    10.73     0  02:09        1.69
  HS02004901           JUNCTION     0.41     1.42    11.24     0  01:53        1.42
  WS02001211           JUNCTION     0.67     0.81     5.65     0  02:11        0.81
  WS02001212           JUNCTION     0.42     0.57     5.64     0  02:10        0.57
  WS02001213           JUNCTION     0.68     0.87     5.63     0  02:10        0.87
  WS02003059           JUNCTION     0.75     0.94     5.63     0  02:11        0.94
  WS02003060           JUNCTION     0.48     0.69     5.62     0  02:10        0.69
  WS02003066           JUNCTION     0.30     0.46     6.01     0  02:10        0.46
  WS02003067           JUNCTION     0.67     0.89     6.21     0  02:10        0.89
  WS02003069           JUNCTION     0.54     0.78     5.37     0  02:11        0.78
  WS02003072           JUNCTION     0.60     0.81     5.19     0  02:11        0.81
  WS02003073           JUNCTION     0.37     0.52     4.58     0  02:12        0.52
  WS02004138           JUNCTION     0.13     0.14     7.39     0  00:29        0.14
  WS02004139           JUNCTION     0.61     0.74     5.65     0  02:12        0.74
  WS02004401           JUNCTION     1.02     1.86     7.86     0  02:05        1.85
  WS02004402           JUNCTION     1.02     1.80     7.76     0  02:08        1.79
  WS02004403           JUNCTION     1.01     1.72     7.65     0  02:09        1.71
  WS02004404           JUNCTION     1.07     1.73     7.58     0  02:09        1.73
  WS02004405           JUNCTION     1.05     1.68     7.53     0  02:08        1.67
  WS02004406           JUNCTION     1.02     1.57     7.40     0  02:05        1.57
  WS02004407           JUNCTION     0.40     0.93     7.24     0  02:10        0.93
  WS02004409           JUNCTION     0.78     1.39     7.16     0  02:10        1.38
  WS02004410           JUNCTION     0.76     1.30     7.02     0  02:10        1.29
  WS02004411           JUNCTION     0.74     1.20     6.88     0  02:05        1.20
  WS02004412           JUNCTION     0.72     1.10     6.74     0  02:08        1.10
  WS02004413           JUNCTION     0.83     1.14     6.61     0  02:08        1.14
  WS02006109           JUNCTION     1.38     2.64     9.26     0  01:54        2.64
  WS02006110           JUNCTION     1.26     2.39     8.98     0  02:04        2.38
  WS02006111           JUNCTION     0.65     1.73     8.44     0  02:08        1.72
  WS02006112           JUNCTION     1.30     2.37     8.25     0  02:05        2.37
  WS02006113           JUNCTION     0.77     1.82     8.71     0  02:09        1.81
  WS02006115           JUNCTION     0.98     1.95     8.09     0  02:09        1.95
  WS02006116           JUNCTION     1.03     1.95     7.99     0  02:08        1.94
  WS02006228           JUNCTION     1.49     3.03     9.68     0  02:03        3.02
  WS02006229           JUNCTION     1.53     3.22     9.92     0  01:57        3.22
  WS02006230           JUNCTION     1.45     2.65     9.39     0  01:48        2.65
  WS02006231           JUNCTION     1.11     2.19     9.31     0  01:50        2.19
  WS02006232           JUNCTION     1.21     2.18     9.22     0  01:49        2.18
  WS02006234           JUNCTION     1.10     1.96     9.12     0  01:32        1.96
  WS02006235           JUNCTION     1.12     2.00     9.16     0  01:32        1.93
  WS02006238           JUNCTION     1.14     2.07     9.21     0  01:32        1.93
  WS02006239           JUNCTION     1.09     2.03     9.24     0  01:32        1.78
  WS02006240           JUNCTION     1.03     1.82     9.12     0  01:32        1.62
  WS02006242           JUNCTION     1.08     1.55     8.82     0  01:32        1.55
  WS02006243           JUNCTION     0.97     1.48     8.90     0  01:32        1.36
  WS02006245           JUNCTION     0.95     1.56     9.04     0  01:32        1.26
  WS02006247           JUNCTION     0.96     1.47     8.97     0  01:32        1.22
  WS02006248           JUNCTION     0.90     1.10     8.69     0  01:32        1.10
  WS02006249           JUNCTION     0.92     1.09     8.69     0  01:32        1.09
  WS02006251           JUNCTION     1.13     2.21     9.88     0  01:33        2.12
  WS02006252           JUNCTION     0.73     1.50     9.74     0  01:30        1.50
  WS02006253           JUNCTION     1.25     2.99    10.64     0  02:09        2.99
  WS02006256           JUNCTION     1.39     2.35     9.28     0  00:00        2.35
  WS02006280           JUNCTION     0.48     1.75    10.02     0  01:57        1.73
  WS02006284           JUNCTION     0.72     1.95    10.35     0  02:04        1.94
  WS02006287           JUNCTION     0.45     1.74    10.69     0  02:05        1.73
  WSF200               JUNCTION     0.33     0.52     5.76     0  02:10        0.52
  YS02001580           JUNCTION     0.18     1.05     9.59     0  01:52        1.05
  YS02001583           JUNCTION     0.21     1.14     9.64     0  01:51        1.06
  YS02001586           JUNCTION     0.33     1.13     9.30     0  01:51        1.13
  YS02001590           JUNCTION     0.46     1.38     9.24     0  01:52        1.38
  YS02001593           JUNCTION     0.39     1.30     9.16     0  01:52        1.29
  YS02001596           JUNCTION     0.54     1.67     9.09     0  01:52        1.65
  YS02001600           JUNCTION     0.69     1.87     9.00     0  01:52        1.86
  YS02001601           JUNCTION     0.91     2.06     8.90     0  01:51        2.06
  YS02001602           JUNCTION     0.81     1.87     8.77     0  01:51        1.87
  YS02001605           JUNCTION     0.76     1.77     8.68     0  01:55        1.77
  YS02001607           JUNCTION     0.73     1.65     8.49     0  02:17        1.64
  YS02001610           JUNCTION     0.78     1.68     8.48     0  01:55        1.68
  YS02001613           JUNCTION     0.73     1.66     8.50     0  02:08        1.65
  YS02001616           JUNCTION     0.66     1.60     8.51     0  02:09        1.59
  YS02001619           JUNCTION     0.64     1.59     8.52     0  02:01        1.58
  YS02001622           JUNCTION     0.64     1.57     8.47     0  02:09        1.56
  YS02001625           JUNCTION     0.91     1.78     8.38     0  01:55        1.78
  YS02001629           JUNCTION     0.89     1.85     8.40     0  01:57        1.85
  YS02001633           JUNCTION     0.98     1.98     8.44     0  01:57        1.98
  YS02001641           JUNCTION     0.96     1.94     8.38     0  01:58        1.94
  YS02001644           JUNCTION     0.95     1.92     8.35     0  01:57        1.92
  YS02001647           JUNCTION     0.75     1.76     8.37     0  02:04        1.74
  YS02001649           JUNCTION     0.93     2.00     8.39     0  02:04        1.96
  YS02001652           JUNCTION     0.74     1.84     8.44     0  02:04        1.80
  YS02001655           JUNCTION     0.55     1.63     8.48     0  02:04        1.59
  YS02001658           JUNCTION     0.38     1.48     8.62     0  01:57        1.35
  YS02001661           JUNCTION     0.28     1.16     8.57     0  02:04        1.13
  YS02001664           JUNCTION     0.09     0.53     8.46     0  02:01        0.51
  YS02001745           JUNCTION     0.18     0.83     8.35     0  02:10        0.83
  YS02001748           JUNCTION     0.39     1.30     8.38     0  01:58        1.27
  YS02001751           JUNCTION     0.51     1.46     8.34     0  02:08        1.46
  YS02001754           JUNCTION     0.70     1.73     8.34     0  02:04        1.71
  YS02001757           JUNCTION     1.02     2.06     8.32     0  02:04        2.05
  YS02001759           JUNCTION     0.93     2.03     8.39     0  02:04        2.00
  YS02001762           JUNCTION     0.90     2.00     8.40     0  02:04        1.97
  YS02001765           JUNCTION     0.85     1.96     8.41     0  02:04        1.93
  YS02001767           JUNCTION     0.82     1.92     8.41     0  02:04        1.91
  YS02001770           JUNCTION     0.83     1.92     8.42     0  02:04        1.91
  YS02001774           JUNCTION     0.89     1.98     8.40     0  02:05        1.97
  YS02001779           JUNCTION     0.65     1.68     8.37     0  01:54        1.68
  YS02001783           JUNCTION     0.36     1.72     7.87     0  01:59        1.66
  YS02001784           JUNCTION     0.36     1.70     7.77     0  01:59        1.59
  YS02001786           JUNCTION     0.30     1.54     7.57     0  01:59        1.41
  YS02001788           JUNCTION     0.22     1.47     7.44     0  01:59        1.23
  YS02001790           JUNCTION     0.26     1.53     7.17     0  01:59        1.35
  YS02001791           JUNCTION     0.16     1.41     6.88     0  01:59        1.28
  YS02001793           JUNCTION     0.10     1.80     6.63     0  02:00        1.78
  YS02001882           JUNCTION     0.44     1.65     8.36     0  01:57        1.63
  YS02001884           JUNCTION     0.54     1.74     8.36     0  01:57        1.73
  YS02001887           JUNCTION     0.61     1.81     8.35     0  02:04        1.81
  YS02001890           JUNCTION     0.64     1.81     8.32     0  01:57        1.81
  YS02001895           JUNCTION     0.41     1.57     8.31     0  02:00        1.56
  YS02001898           JUNCTION     0.42     1.57     8.31     0  01:57        1.56
  YS02001901           JUNCTION     0.53     1.68     8.29     0  01:57        1.67
  YS02001904           JUNCTION     0.51     1.64     8.27     0  01:57        1.63
  YS02001907           JUNCTION     0.84     1.96     8.25     0  01:57        1.96
  YS02001910           JUNCTION     0.64     1.97     8.48     0  01:58        1.87
  YS02001915           JUNCTION     0.45     1.92     8.64     0  01:58        1.75
  YS02001918           JUNCTION     0.26     1.81     8.88     0  01:58        1.42
  YS02001920           JUNCTION     0.34     1.99     9.00     0  01:58        1.49
  YS02001923           JUNCTION     0.21     1.82     9.08     0  01:58        1.25
  YS02001926           JUNCTION     0.23     1.69     9.14     0  01:58        1.07
  YS02001929           JUNCTION     0.14     1.62     9.31     0  01:58        0.83
  YS02006553           JUNCTION     0.84     2.03     8.32     0  01:59        2.03
  YS02006556           JUNCTION     0.81     2.09     8.40     0  01:59        2.07
  YS02006558           JUNCTION     0.85     2.16     8.43     0  01:59        2.14
  YS02006561           JUNCTION     0.23     1.30     7.96     0  01:59        1.26
  YS02163301           JUNCTION     0.92     1.90     8.42     0  01:57        1.90
  YS02163601           JUNCTION     1.01     2.02     8.41     0  01:59        2.01
  YS02164001           JUNCTION     0.95     1.94     8.40     0  01:58        1.94
  YSB1154              JUNCTION     0.60     1.91    10.97     0  02:08        1.90
  YSB1171              JUNCTION     0.74     1.95    10.85     0  01:57        1.95
  YSB1174              JUNCTION     0.55     1.80    10.91     0  02:01        1.79
  YSB6556              JUNCTION     0.49     1.74    10.91     0  01:57        1.73
  CC-1                 OUTFALL      0.00     0.00     0.00     0  00:00        0.00
  CC-2                 OUTFALL      0.00     0.00     0.00     0  00:00        0.00
  JK-1                 OUTFALL      0.00     0.00     0.00     0  00:00        0.00
  JK-2                 OUTFALL      0.00     0.00     0.00     0  00:00        0.00
  WSC                  OUTFALL      0.37     0.52     1.19     0  02:12        0.52
  CC-storage           STORAGE      1.60     2.17     7.67     0  02:37        2.17
  JK-storage           STORAGE      0.33     5.80     6.60     0  02:00        5.77
  XR-storage           STORAGE      7.85     8.66     6.66     0  06:00        8.66
  
  
  *******************
  Node Inflow Summary
  *******************
  
  -------------------------------------------------------------------------------------------------
                                  Maximum  Maximum                  Lateral       Total        Flow
                                  Lateral    Total  Time of Max      Inflow      Inflow     Balance
                                   Inflow   Inflow   Occurrence      Volume      Volume       Error
  Node                 Type           LPS      LPS  days hr:min    10^6 ltr    10^6 ltr     Percent
  -------------------------------------------------------------------------------------------------
  HS02004478           JUNCTION      0.00  2303.09     0  02:04           0        10.4      -0.004
  HS02004479           JUNCTION      0.00   396.63     0  01:58           0        1.05       0.089
  HS02004480           JUNCTION      0.00  2064.70     0  01:56           0        7.86       0.031
  HS02004770           JUNCTION   1533.34  1533.34     0  02:10        3.37        3.64       0.091
  HS02004777           JUNCTION      0.03   691.87     0  01:53    0.000648        2.28       0.241
  HS02004785           JUNCTION      0.15   705.90     0  01:53     0.00324        2.28       0.027
  HS02004788           JUNCTION    562.44   861.36     0  01:54        1.27        3.55       0.005
  HS02004792           JUNCTION   1916.18  2719.30     0  02:10        4.38        7.92       0.009
  HS02004799           JUNCTION    333.72  1713.20     0  01:56        0.72        7.08       0.046
  HS02004802           JUNCTION      0.00  1233.19     0  02:11           0        2.76       0.150
  HS02004807           JUNCTION    414.51  1470.80     0  02:10       0.881        2.87       0.155
  HS02004817           JUNCTION      0.60  1061.96     0  02:10       0.013        2.06       0.815
  HS02004824           JUNCTION    645.50  1061.18     0  02:10        1.56        2.33       0.034
  HS02004830           JUNCTION      0.15   558.35     0  01:57     0.00324        1.06       0.122
  HS02004837           JUNCTION    391.22   768.11     0  01:57       0.972        1.48       0.057
  HS02004842           JUNCTION      0.00   772.86     0  01:57           0       0.938       1.414
  HS02004848           JUNCTION    594.77  1037.38     0  01:57        1.55        2.31      -0.005
  HS02004852           JUNCTION      0.00  1014.54     0  01:57           0        2.16       0.004
  HS02004856           JUNCTION    169.02  1070.96     0  01:57       0.364        2.52       0.068
  HS02004862           JUNCTION    266.70  1173.02     0  01:57       0.652        3.17       0.006
  HS02004870           JUNCTION    225.77  1230.49     0  02:10       0.483        3.66       0.013
  HS02004876           JUNCTION    230.37  1460.81     0  02:10         0.5        4.16       0.023
  HS02004881           JUNCTION    121.97  1579.66     0  02:10       0.255        4.41       0.018
  HS02004901           JUNCTION    352.67   618.39     0  02:10       0.751        1.21       0.173
  WS02001211           JUNCTION      7.35   214.37     0  01:41       0.159        4.02       0.860
  WS02001212           JUNCTION      0.00   206.26     0  02:57           0        3.98       0.427
  WS02001213           JUNCTION      0.00   209.65     0  03:18           0        3.97       0.579
  WS02003059           JUNCTION      0.00   213.85     0  03:17           0        3.95       1.021
  WS02003060           JUNCTION     16.53  1515.39     0  02:10       0.357        15.8       0.190
  WS02003066           JUNCTION      0.00  1301.66     0  02:06           0        11.5       0.046
  WS02003067           JUNCTION      0.00  1301.67     0  02:09           0        11.5       0.092
  WS02003069           JUNCTION      0.32  1515.54     0  02:11     0.00691        15.8       0.202
  WS02003072           JUNCTION      0.00  1515.38     0  02:11           0        15.7       0.243
  WS02003073           JUNCTION      1.82  1517.15     0  02:11      0.0393        15.7       0.277
  WS02004138           JUNCTION      0.00   190.00     0  00:29           0        3.88       0.080
  WS02004139           JUNCTION      0.32   192.76     0  00:29     0.00693        3.89       0.715
  WS02004401           JUNCTION      0.00  1301.90     0  02:09           0        11.8       0.205
  WS02004402           JUNCTION      0.00  1301.97     0  02:09           0        11.8       0.192
  WS02004403           JUNCTION      0.00  1302.15     0  02:09           0        11.8       0.170
  WS02004404           JUNCTION      0.16  1302.29     0  02:09      0.0035        11.7       0.125
  WS02004405           JUNCTION      0.04  1303.03     0  02:05    0.000823        11.7       0.190
  WS02004406           JUNCTION      0.00  1302.25     0  02:09           0        11.7       0.306
  WS02004407           JUNCTION      0.00  1302.10     0  02:09           0        11.7       0.078
  WS02004409           JUNCTION      0.00  1301.81     0  02:09           0        11.7       0.174
  WS02004410           JUNCTION      0.00  1301.87     0  02:09           0        11.6       0.193
  WS02004411           JUNCTION      0.00  1301.78     0  02:09           0        11.6       0.194
  WS02004412           JUNCTION      0.00  1301.69     0  02:10           0        11.6       0.205
  WS02004413           JUNCTION      0.00  1301.73     0  02:09           0        11.6       0.299
  WS02006109           JUNCTION      1.23  1288.91     0  02:05      0.0266        11.7       0.187
  WS02006110           JUNCTION      0.00  1123.03     0  02:28           0        11.3       0.197
  WS02006111           JUNCTION      0.00  1123.20     0  02:28           0        11.3       0.033
  WS02006112           JUNCTION    288.60  1301.88     0  02:09       0.616        11.9       0.252
  WS02006113           JUNCTION      0.00  1123.07     0  02:28           0        11.3       0.118
  WS02006115           JUNCTION      0.00  1301.94     0  02:09           0        11.9       0.207
  WS02006116           JUNCTION      0.00  1302.07     0  02:10           0        11.8       0.157
  WS02006228           JUNCTION      0.00  1288.03     0  02:04           0        11.7       0.145
  WS02006229           JUNCTION      0.00  2304.24     0  02:04           0        14.8       0.098
  WS02006230           JUNCTION     10.28  1025.91     0  02:04       0.222        7.61       0.218
  WS02006231           JUNCTION      0.00   453.31     0  01:56           0        6.16       0.185
  WS02006232           JUNCTION      0.00   453.45     0  02:00           0        6.15       0.294
  WS02006234           JUNCTION      0.00   453.18     0  01:57           0        6.13       0.173
  WS02006235           JUNCTION      0.00   419.48     0  03:46           0        6.01       0.169
  WS02006238           JUNCTION      0.00   419.38     0  03:46           0        5.99       0.142
  WS02006239           JUNCTION      0.00   419.35     0  03:45           0        5.99       0.229
  WS02006240           JUNCTION      0.00   419.31     0  03:45           0           6       0.272
  WS02006242           JUNCTION      0.00   419.29     0  03:45           0        6.01       0.320
  WS02006243           JUNCTION      0.00   419.28     0  03:45           0        5.52       0.227
  WS02006245           JUNCTION      0.00   450.10     0  01:32           0        5.54       0.228
  WS02006247           JUNCTION      0.00   470.73     0  01:32           0        5.55       0.182
  WS02006248           JUNCTION      0.00   550.36     0  01:32           0        5.88       0.156
  WS02006249           JUNCTION      0.00  1357.46     0  02:10           0        9.82       0.156
  WS02006251           JUNCTION      0.08  1608.29     0  02:10     0.00166        9.99       0.174
  WS02006252           JUNCTION      0.00   650.82     0  02:10           0        6.14      -0.007
  WS02006253           JUNCTION     30.98  1608.45     0  02:10      0.0616        4.47       0.275
  WS02006256           JUNCTION      0.00   300.00     0  00:00           0       0.766      -0.120
  WS02006280           JUNCTION      0.00  2303.41     0  02:04           0        10.4       0.002
  WS02006284           JUNCTION      0.10  2302.93     0  02:04     0.00207        10.4       0.006
  WS02006287           JUNCTION      0.00  2304.17     0  02:05           0        10.4       0.010
  WSF200               JUNCTION      0.00  1301.76     0  02:06           0        11.5       0.049
  YS02001580           JUNCTION      0.00    70.05     0  01:51           0     0.00403       0.001
  YS02001583           JUNCTION      0.00   119.41     0  01:51           0      0.0155      -4.170
  YS02001586           JUNCTION    757.80   757.80     0  02:10        2.06        2.07       0.047
  YS02001590           JUNCTION      0.00   317.99     0  02:00           0        1.59       0.004
  YS02001593           JUNCTION      0.00   318.06     0  02:00           0        1.59      -0.012
  YS02001596           JUNCTION      0.00   318.09     0  02:00           0        1.59       0.001
  YS02001600           JUNCTION      0.00   318.04     0  02:00           0        1.59      -0.027
  YS02001601           JUNCTION   1237.00  1554.46     0  02:10        2.82        4.41       0.031
  YS02001602           JUNCTION      0.00   494.88     0  01:51           0        2.63       0.027
  YS02001605           JUNCTION      0.00   495.03     0  01:51           0        2.44       0.040
  YS02001607           JUNCTION      0.00   495.31     0  01:51           0        2.44       0.090
  YS02001610           JUNCTION      0.00   730.89     0  02:10           0        2.72       0.102
  YS02001613           JUNCTION      0.00   496.38     0  01:50           0        2.09       0.089
  YS02001616           JUNCTION      0.00   495.32     0  01:50           0        2.09       0.023
  YS02001619           JUNCTION   1327.18  1327.18     0  02:10        3.31        5.12      -0.007
  YS02001622           JUNCTION      0.00   932.77     0  02:10           0        4.83       0.007
  YS02001625           JUNCTION      0.00  1334.45     0  02:10           0        5.18       0.336
  YS02001629           JUNCTION      0.00   883.57     0  01:53           0        3.42      -0.100
  YS02001633           JUNCTION    926.40  1220.21     0  01:53        2.06        5.15       0.087
  YS02001641           JUNCTION      0.00  1218.49     0  01:53           0         4.8       0.071
  YS02001644           JUNCTION    814.92  1524.59     0  01:54        1.79        6.59       0.062
  YS02001647           JUNCTION      0.00  1525.43     0  01:54           0        5.76       0.003
  YS02001649           JUNCTION      0.00  1731.75     0  01:53           0         7.4       0.082
  YS02001652           JUNCTION      0.00   768.12     0  02:10           0        1.65      -0.070
  YS02001655           JUNCTION      0.15   767.91     0  02:10     0.00332        1.65       0.042
  YS02001658           JUNCTION      0.00   767.72     0  02:10           0        1.64      -0.018
  YS02001661           JUNCTION      0.00   788.06     0  02:04           0        1.64      -0.079
  YS02001664           JUNCTION    764.93   764.93     0  02:10        1.64        1.64       0.000
  YS02001745           JUNCTION    469.67   469.67     0  02:05       0.988       0.988       0.112
  YS02001748           JUNCTION      0.04   474.23     0  02:05    0.000972       0.989      -0.234
  YS02001751           JUNCTION      0.01   473.20     0  02:05    0.000238       0.998       0.100
  YS02001754           JUNCTION      0.26   473.16     0  02:05     0.00562        1.01      -0.136
  YS02001757           JUNCTION      0.00  2723.15     0  02:01           0        11.5       0.274
  YS02001759           JUNCTION    652.85  1110.56     0  02:02        1.37        3.09       0.143
  YS02001762           JUNCTION      0.00   614.17     0  02:00           0        1.73       0.191
  YS02001765           JUNCTION      0.00   614.84     0  02:00           0        1.73       0.144
  YS02001767           JUNCTION      0.54   615.34     0  02:00      0.0116        1.73       0.177
  YS02001770           JUNCTION    953.32   953.32     0  02:10        2.08        2.12       0.074
  YS02001774           JUNCTION      0.00   560.41     0  02:10           0       0.421       0.748
  YS02001779           JUNCTION      0.01   560.27     0  02:09    0.000108       0.374      -0.183
  YS02001783           JUNCTION      0.00  1159.72     0  02:08           0        4.88       0.007
  YS02001784           JUNCTION      1.06  1160.85     0  02:08      0.0229         4.9       0.014
  YS02001786           JUNCTION      0.06  1160.90     0  02:08     0.00122        4.91       0.015
  YS02001788           JUNCTION      0.07  1160.84     0  02:04     0.00153        4.91       0.001
  YS02001790           JUNCTION      0.15  1211.99     0  02:01     0.00335        4.91       0.002
  YS02001791           JUNCTION      0.00  1359.17     0  02:01           0        4.91      -0.015
  YS02001793           JUNCTION      0.00  1418.28     0  02:01           0        4.91       0.000
  YS02001882           JUNCTION      0.00    31.17     0  01:55           0      0.0129       6.065
  YS02001884           JUNCTION      0.00    36.94     0  01:51           0      0.0487       5.747
  YS02001887           JUNCTION    693.10   693.13     0  02:05        1.42        1.45       0.317
  YS02001890           JUNCTION      0.00   693.23     0  02:05           0        1.41       0.382
  YS02001895           JUNCTION      0.00   517.46     0  02:06           0        1.32       0.149
  YS02001898           JUNCTION      0.00   517.45     0  02:06           0        1.32       0.016
  YS02001901           JUNCTION      0.00   517.40     0  02:08           0        1.32       0.264
  YS02001904           JUNCTION      0.00   517.32     0  02:06           0        1.33       0.233
  YS02001907           JUNCTION      0.00  1856.86     0  02:10           0         4.4       0.425
  YS02001910           JUNCTION      0.00  1339.95     0  02:09           0        3.08       0.243
  YS02001915           JUNCTION    887.51  1340.19     0  02:10        1.98        3.11       0.060
  YS02001918           JUNCTION      0.00   460.63     0  02:10           0        1.15       0.016
  YS02001920           JUNCTION      2.87   460.62     0  02:10       0.062        1.13       0.081
  YS02001923           JUNCTION      0.04   455.96     0  02:10    0.000814        1.06      -0.009
  YS02001926           JUNCTION      0.05   455.31     0  02:10     0.00113        1.05       0.041
  YS02001929           JUNCTION    449.83   449.83     0  02:10        1.04        1.04      -0.065
  YS02006553           JUNCTION      0.00   794.36     0  02:26           0        2.86       0.428
  YS02006556           JUNCTION      0.00   794.27     0  02:26           0        2.87       0.301
  YS02006558           JUNCTION    960.42  1160.86     0  02:02        2.08        4.92       0.079
  YS02006561           JUNCTION      0.00  1159.80     0  02:08           0        4.88      -0.006
  YS02163301           JUNCTION      0.00   898.13     0  01:52           0        3.43       0.060
  YS02163601           JUNCTION      0.11  1219.07     0  01:53     0.00238         4.8       0.121
  YS02164001           JUNCTION      0.00  1218.85     0  01:53           0         4.8       0.051
  YSB1154              JUNCTION    393.95   393.95     0  02:10       0.859        0.86       0.178
  YSB1171              JUNCTION      0.00   940.60     0  02:07           0        1.67       0.405
  YSB1174              JUNCTION    325.53   325.53     0  02:05       0.657       0.657       0.204
  YSB6556              JUNCTION      0.00   394.06     0  02:10           0       0.861       0.160
  CC-1                 OUTFALL       0.00   683.00     0  02:00           0        2.87       0.000
  CC-2                 OUTFALL       0.00   683.00     0  02:10           0        1.64       0.000
  JK-1                 OUTFALL       0.00  1000.00     0  00:00           0        3.75       0.000
  JK-2                 OUTFALL       0.00  1000.00     0  01:40           0        2.06       0.000
  WSC                  OUTFALL       0.00  1517.09     0  02:12           0        15.7       0.000
  CC-storage           STORAGE       0.00  2723.35     0  02:01           0        13.7       0.081
  JK-storage           STORAGE       0.00  1703.64     0  02:01           0        5.06     -23.305
  XR-storage           STORAGE     200.00   200.00     0  00:00        4.32        4.92       0.001
  
  
  **********************
  Node Surcharge Summary
  **********************
  
  Surcharging occurs when water rises above the top of the highest conduit.
  ---------------------------------------------------------------------
                                               Max. Height   Min. Depth
                                   Hours       Above Crown    Below Rim
  Node                 Type      Surcharged         Meters       Meters
  ---------------------------------------------------------------------
  HS02004478           JUNCTION        0.65          0.664        0.276
  HS02004479           JUNCTION        0.81          0.896        0.154
  HS02004480           JUNCTION        0.86          0.961        0.139
  HS02004770           JUNCTION        0.74          0.720        0.000
  HS02004777           JUNCTION        0.75          0.780        0.000
  HS02004785           JUNCTION        0.69          0.746        0.044
  HS02004788           JUNCTION        0.68          0.720        0.000
  HS02004792           JUNCTION        0.82          0.900        0.000
  HS02004799           JUNCTION        0.99          1.060        0.000
  HS02004802           JUNCTION        0.88          1.092        0.118
  HS02004807           JUNCTION        0.85          1.220        0.000
  HS02004817           JUNCTION        1.55          1.681        0.059
  HS02004824           JUNCTION        0.67          1.258        0.052
  HS02004830           JUNCTION        0.64          1.273        0.057
  HS02004837           JUNCTION        0.59          1.238        0.102
  HS02004842           JUNCTION        0.76          1.520        0.000
  HS02004848           JUNCTION        0.54          1.254        0.116
  HS02004852           JUNCTION        0.57          1.279        0.141
  HS02004856           JUNCTION        0.55          1.195        0.105
  HS02004862           JUNCTION        0.59          1.201        0.099
  HS02004870           JUNCTION        0.61          1.164        0.236
  HS02004876           JUNCTION        0.67          1.253        0.307
  HS02004881           JUNCTION        0.65          1.006        0.444
  HS02004901           JUNCTION        0.75          0.720        0.000
  WS02004401           JUNCTION        1.76          0.855        0.805
  WS02004402           JUNCTION        1.80          0.799        0.941
  WS02004403           JUNCTION        1.81          0.724        1.306
  WS02004404           JUNCTION        1.97          0.733        2.047
  WS02004405           JUNCTION        1.93          0.684        2.116
  WS02004406           JUNCTION        1.90          0.572        1.878
  WS02004409           JUNCTION        1.35          0.388        1.972
  WS02004410           JUNCTION        1.27          0.297        2.243
  WS02004411           JUNCTION        1.16          0.201        2.329
  WS02004412           JUNCTION        1.04          0.103        2.207
  WS02004413           JUNCTION        1.55          0.144        2.056
  WS02006109           JUNCTION        4.54          1.820        0.000
  WS02006110           JUNCTION        2.29          1.482        0.368
  WS02006111           JUNCTION        1.52          0.923        0.947
  WS02006112           JUNCTION        2.48          1.370        0.310
  WS02006113           JUNCTION        1.53          1.019        0.911
  WS02006115           JUNCTION        1.68          0.941        1.309
  WS02006116           JUNCTION        1.69          0.885        1.405
  WS02006228           JUNCTION        4.54          2.199        0.001
  WS02006229           JUNCTION        1.19          1.044        0.026
  WS02006230           JUNCTION        2.04          1.570        0.000
  WS02006231           JUNCTION        2.29          1.479        0.051
  WS02006232           JUNCTION        4.48          1.480        0.000
  WS02006234           JUNCTION        4.07          1.240        0.000
  WS02006235           JUNCTION        4.46          1.290        0.000
  WS02006238           JUNCTION        4.46          1.351        0.079
  WS02006239           JUNCTION        4.46          1.290        0.000
  WS02006240           JUNCTION        4.46          1.113        0.277
  WS02006242           JUNCTION        4.46          0.820        0.000
  WS02006243           JUNCTION        4.46          0.770        0.000
  WS02006245           JUNCTION        4.45          0.850        0.000
  WS02006247           JUNCTION        4.46          0.760        0.000
  WS02006248           JUNCTION        4.45          0.380        0.000
  WS02006249           JUNCTION        4.46          0.390        0.000
  WS02006251           JUNCTION        2.44          1.180        0.000
  WS02006252           JUNCTION        4.49          1.100        0.000
  WS02006253           JUNCTION        2.50          1.955        0.525
  WS02006256           JUNCTION        4.92          2.050        0.000
  WS02006280           JUNCTION        1.02          0.695        0.085
  WS02006284           JUNCTION        0.91          0.667        0.133
  WS02006287           JUNCTION        0.78          0.740        0.150
  YS02001580           JUNCTION        0.82          0.450        0.000
  YS02001583           JUNCTION        0.83          0.500        0.000
  YS02001586           JUNCTION        1.09          0.510        0.000
  YS02001590           JUNCTION        1.21          0.727        0.023
  YS02001593           JUNCTION        1.21          0.682        0.158
  YS02001596           JUNCTION        1.34          0.938        0.132
  YS02001600           JUNCTION        1.52          1.189        0.001
  YS02001601           JUNCTION        2.35          1.440        0.000
  YS02001602           JUNCTION        2.17          1.270        0.000
  YS02001605           JUNCTION        2.13          1.175        0.005
  YS02001607           JUNCTION        1.27          0.645        0.035
  YS02001610           JUNCTION        1.30          0.680        0.000
  YS02001613           JUNCTION        1.27          0.659        0.041
  YS02001616           JUNCTION        1.22          0.596        0.014
  YS02001619           JUNCTION        1.21          0.586        0.024
  YS02001622           JUNCTION        1.21          0.566        0.054
  YS02001625           JUNCTION        1.58          0.780        0.000
  YS02001629           JUNCTION        1.17          0.470        0.000
  YS02001633           JUNCTION        2.00          0.964        0.096
  YS02001641           JUNCTION        2.07          0.945        0.155
  YS02001644           JUNCTION        2.06          0.920        0.000
  YS02001647           JUNCTION        1.34          0.765        0.135
  YS02001649           JUNCTION        2.13          0.998        0.052
  YS02001652           JUNCTION        1.25          0.812        0.318
  YS02001655           JUNCTION        1.03          0.633        0.567
  YS02001658           JUNCTION        0.56          0.478        0.822
  YS02001661           JUNCTION        0.02          0.091        1.299
  YS02001748           JUNCTION        0.39          0.220        0.970
  YS02001751           JUNCTION        0.88          0.463        0.737
  YS02001754           JUNCTION        1.20          0.679        0.471
  YS02001757           JUNCTION        2.50          1.062        0.148
  YS02001759           JUNCTION        2.19          1.026        0.184
  YS02001762           JUNCTION        2.09          1.004        0.146
  YS02001765           JUNCTION        1.94          0.960        0.140
  YS02001767           JUNCTION        1.81          0.925        0.105
  YS02001770           JUNCTION        1.70          0.895        0.025
  YS02001774           JUNCTION        2.02          0.978        0.072
  YS02001779           JUNCTION        1.17          0.680        0.000
  YS02001783           JUNCTION        0.70          0.925        0.675
  YS02001784           JUNCTION        0.67          0.902        0.588
  YS02001786           JUNCTION        0.54          0.741        0.689
  YS02001788           JUNCTION        0.02          0.666        0.814
  YS02001790           JUNCTION        0.03          0.730        0.427
  YS02001791           JUNCTION        0.02          0.610        1.310
  YS02001793           JUNCTION        0.04          0.800        1.800
  YS02001882           JUNCTION        0.63          0.646        0.184
  YS02001884           JUNCTION        0.64          0.679        0.191
  YS02001887           JUNCTION        0.69          0.765        0.185
  YS02001890           JUNCTION        0.71          0.760        0.000
  YS02001895           JUNCTION        0.62          0.568        0.182
  YS02001898           JUNCTION        0.61          0.540        0.200
  YS02001901           JUNCTION        0.67          0.684        0.186
  YS02001904           JUNCTION        0.66          0.641        0.209
  YS02001907           JUNCTION        1.01          0.950        0.000
  YS02001910           JUNCTION        0.74          0.970        0.130
  YS02001915           JUNCTION        0.63          0.924        0.076
  YS02001918           JUNCTION        0.52          0.810        0.000
  YS02001920           JUNCTION        0.54          0.993        0.147
  YS02001923           JUNCTION        0.11          0.611        0.209
  YS02001926           JUNCTION        0.16          0.693        0.207
  YS02001929           JUNCTION        0.01          0.616        0.164
  YS02006553           JUNCTION        1.04          1.034        0.156
  YS02006556           JUNCTION        0.87          1.051        0.299
  YS02006558           JUNCTION        0.85          1.064        0.336
  YS02006561           JUNCTION        0.49          0.498        0.652
  YS02163301           JUNCTION        1.86          0.905        0.125
  YS02163601           JUNCTION        2.23          1.016        0.064
  YS02164001           JUNCTION        2.01          0.941        0.159
  YSB1154              JUNCTION        1.18          1.207        0.193
  YSB1171              JUNCTION        1.19          1.100        0.000
  YSB1174              JUNCTION        1.05          1.099        0.151
  YSB6556              JUNCTION        0.95          1.036        0.064
  
  
  *********************
  Node Flooding Summary
  *********************
  
  Flooding refers to all water that overflows a node, whether it ponds or not.
  --------------------------------------------------------------------------
                                                             Total   Maximum
                                 Maximum   Time of Max       Flood    Ponded
                        Hours       Rate    Occurrence      Volume     Depth
  Node                 Flooded       LPS   days hr:min    10^6 ltr    Meters
  --------------------------------------------------------------------------
  HS02004770              0.51   1027.07      0  02:10       0.903     0.000
  HS02004777              0.01     26.59      0  01:53       0.000     0.000
  HS02004788              0.01    107.94      0  01:53       0.000     0.000
  HS02004792              0.50   1577.09      0  02:10       1.566     0.000
  HS02004799              0.26    185.22      0  02:04       0.111     0.000
  HS02004807              0.13    238.54      0  02:10       0.062     0.000
  HS02004842              0.01     46.23      0  01:57       0.000     0.000
  HS02004901              0.60    618.38      0  02:10       0.935     0.000
  WS02006109              0.56    274.76      0  02:09       0.341     0.000
  WS02006230              0.92    573.37      0  02:04       1.276     0.000
  WS02006232              0.19      0.63      0  02:14       0.000     0.000
  WS02006234              1.01    134.86      0  01:32       0.340     0.000
  WS02006235              0.01     65.71      0  01:32       0.000     0.000
  WS02006239              0.01    118.16      0  01:32       0.000     0.000
  WS02006242              1.11    138.13      0  01:32       0.500     0.000
  WS02006243              0.01     34.31      0  01:32       0.000     0.000
  WS02006245              0.01    119.35      0  01:32       0.000     0.000
  WS02006247              0.01     22.57      0  01:32       0.000     0.000
  WS02006248              1.48    339.39      0  01:48       1.569     0.000
  WS02006249              2.21   1296.61      0  02:10       5.165     0.000
  WS02006251              0.01    101.62      0  01:33       0.000     0.000
  WS02006252              0.38    650.81      0  02:10       0.614     0.000
  WS02006256              0.71    296.24      0  02:40       0.516     0.000
  YS02001580              0.01     30.68      0  01:52       0.000     0.000
  YS02001583              0.01     62.03      0  01:51       0.000     0.000
  YS02001586              0.64    440.20      0  02:10       0.470     0.000
  YS02001601              0.99   1156.62      0  02:10       1.772     0.000
  YS02001602              0.94     61.99      0  02:13       0.194     0.000
  YS02001610              0.77    730.69      0  02:10       0.901     0.000
  YS02001625              0.84   1334.42      0  02:10       2.080     0.000
  YS02001629              0.04     10.81      0  01:57       0.000     0.000
  YS02001644              0.38   1153.00      0  02:10       0.816     0.000
  YS02001779              0.30    560.26      0  02:10       0.355     0.000
  YS02001890              0.20    178.63      0  02:05       0.084     0.000
  YS02001907              0.46   1659.81      0  02:10       1.538     0.000
  YS02001918              0.01     34.01      0  01:58       0.000     0.000
  YSB1171                 0.38    940.36      0  02:07       0.764     0.000
  JK-storage              0.01    749.60      0  02:00       0.021     0.000
  
  
  **********************
  Storage Volume Summary
  **********************
  
  --------------------------------------------------------------------------------------------------
                         Average     Avg  Evap Exfil       Maximum     Max    Time of Max    Maximum
                          Volume    Pcnt  Pcnt  Pcnt        Volume    Pcnt     Occurrence    Outflow
  Storage Unit           1000 m3    Full  Loss  Loss       1000 m3    Full    days hr:min        LPS
  --------------------------------------------------------------------------------------------------
  CC-storage               4.464      70     0     0         6.045      94       0  02:37    1766.00
  JK-storage               0.017       6     0     0         0.291     100       0  02:00    2300.00
  XR-storage               0.942      65     0     0         1.039      72       0  06:00     190.00
  
  
  ***********************
  Outfall Loading Summary
  ***********************
  
  -----------------------------------------------------------
                         Flow       Avg       Max       Total
                         Freq      Flow      Flow      Volume
  Outfall Node           Pcnt       LPS       LPS    10^6 ltr
  -----------------------------------------------------------
  CC-1                  27.32    683.00    683.00       2.870
  CC-2                  16.18    683.00    683.00       1.640
  JK-1                  86.36    286.53   1000.00       3.754
  JK-2                  24.99    595.59   1000.00       2.058
  WSC                   99.96    877.18   1517.09      15.680
  -----------------------------------------------------------
  System                50.96   3125.30   1517.09      26.003
  
  
  ********************
  Link Flow Summary
  ********************
  
  -----------------------------------------------------------------------------
                                 Maximum  Time of Max   Maximum    Max/    Max/
                                  |Flow|   Occurrence   |Veloc|    Full    Full
  Link                 Type          LPS  days hr:min     m/sec    Flow   Depth
  -----------------------------------------------------------------------------
  1                    CONDUIT   1517.09     0  02:12      3.71    0.53    0.52
  HS02004478WS02006287 CONDUIT   2304.17     0  02:05      2.60    0.65    1.00
  HS02004479HS02004480 CONDUIT    397.29     0  01:58      0.57    0.38    1.00
  HS02004480HS02004478 CONDUIT   2063.20     0  01:56      2.95    8.69    1.00
  HS02004770HS02004777 CONDUIT    691.84     0  01:53      0.99    1.27    1.00
  HS02004777HS02004785 CONDUIT    705.75     0  01:53      1.06    0.87    1.00
  HS02004785HS02004788 CONDUIT    650.09     0  01:54      1.34    4.90    1.00
  HS02004788HS02004792 CONDUIT    861.13     0  01:54      1.45    0.57    1.00
  HS02004792HS02004799 CONDUIT   1565.24     0  01:55      2.24    0.96    1.00
  HS02004799HS02004480 CONDUIT   1713.53     0  01:56      2.45    2.16    1.00
  HS02004802HS02004478 CONDUIT   1233.52     0  02:11      1.76    1.09    1.00
  HS02004807HS02004802 CONDUIT   1233.19     0  02:11      1.76    2.35    1.00
  HS02004817HS02004807 CONDUIT   1061.91     0  02:10      1.52    0.63    1.00
  HS02004817HS02004824 CONDUIT   1061.36     0  02:10      1.52    0.48    1.00
  HS02004824HS02004830 CONDUIT    558.20     0  01:57      0.80    0.73    1.00
  HS02004830HS02004837 CONDUIT    558.16     0  01:57      0.87    0.56    1.00
  HS02004837HS02004842 CONDUIT    772.86     0  01:57      1.10    0.46    1.00
  HS02004842HS02004848 CONDUIT    773.89     0  01:57      1.13    0.45    1.00
  HS02004848HS02004852 CONDUIT   1014.54     0  01:57      1.50    1.14    1.00
  HS02004852HS02004856 CONDUIT    980.27     0  01:57      1.43    1.12    1.00
  HS02004856HS02004862 CONDUIT   1052.90     0  01:57      1.68    1.05    1.00
  HS02004862HS02004870 CONDUIT   1105.44     0  01:57      1.89    1.19    1.00
  HS02004870HS02004876 CONDUIT   1230.46     0  02:10      1.90    0.82    1.00
  HS02004876HS02004881 CONDUIT   1460.84     0  02:10      2.58   15.54    1.00
  HS02004881HS02006253 CONDUIT   1579.86     0  02:10      2.69    0.31    1.00
  HS02004901HS02004770 CONDUIT    265.79     0  02:24      0.38    1.00    1.00
  WS02001211WS02001212 CONDUIT    206.26     0  02:57      0.54    0.16    0.69
  WS02001212WS02001213 CONDUIT    209.65     0  03:18      1.03    0.32    0.56
  WS02001213WS02003059 CONDUIT    213.85     0  03:17      0.47    0.35    0.90
  WS02003059WS02003060 CONDUIT    219.04     0  03:17      0.67    0.14    0.81
  WS02003060WS02003069 CONDUIT   1515.22     0  02:11      2.09    0.59    0.61
  WS02003066WSF200     CONDUIT   1301.76     0  02:06      3.25    0.22    0.39
  WS02003067WS02003066 CONDUIT   1301.66     0  02:06      2.00    0.42    0.56
  WS02003069WS02003072 CONDUIT   1515.38     0  02:11      1.90    0.73    0.66
  WS02003072WS02003073 CONDUIT   1515.33     0  02:11      2.06    3.27    0.62
  WS02004138WS02004139 CONDUIT    192.44     0  00:29      2.15    0.04    0.42
  WS02004139WS02001211 CONDUIT    207.02     0  01:41      0.54    0.26    0.61
  WS02004401WS02004402 CONDUIT   1301.97     0  02:09      1.66    1.56    1.00
  WS02004402WS02004403 CONDUIT   1302.15     0  02:09      1.66    1.87    1.00
  WS02004403WS02004404 CONDUIT   1302.12     0  02:09      1.66    0.94    1.00
  WS02004404WS02004405 CONDUIT   1302.99     0  02:05      1.66   12.77    1.00
  WS02004405WS02004406 CONDUIT   1302.25     0  02:09      1.66    2.57    1.00
  WS02004406WS02004407 CONDUIT   1302.10     0  02:09      1.70    0.58    0.96
  WS02004407WS02004409 CONDUIT   1301.81     0  02:09      1.95    0.46    0.96
  WS02004409WS02004410 CONDUIT   1301.87     0  02:09      1.66    1.68    1.00
  WS02004410WS02004411 CONDUIT   1301.78     0  02:09      1.66    1.78    1.00
  WS02004411WS02004412 CONDUIT   1301.69     0  02:10      1.66    1.85    1.00
  WS02004412WS02004413 CONDUIT   1301.73     0  02:09      1.66    0.87    1.00
  WS02004413WS02003067 CONDUIT   1301.67     0  02:09      2.01    0.56    0.77
  WS02006109WS02006110 CONDUIT   1123.03     0  02:28      2.23    2.16    1.00
  WS02006110WS02006113 CONDUIT   1123.07     0  02:28      2.23    1.02    1.00
  WS02006111WS02006112 CONDUIT   1123.38     0  02:28      2.23    0.53    1.00
  WS02006112WS02006115 CONDUIT   1301.94     0  02:09      1.66    0.77    1.00
  WS02006113WS02006111 CONDUIT   1123.20     0  02:28      2.68    1.35    1.00
  WS02006115WS02006116 CONDUIT   1302.07     0  02:10      1.66    1.67    1.00
  WS02006116WS02004401 CONDUIT   1301.90     0  02:09      1.66    1.79    1.00
  WS02006228WS02006109 CONDUIT   1287.68     0  02:05      2.56    5.63    1.00
  WS02006229WS02006228 CONDUIT   1288.03     0  02:04      2.56    4.27    1.00
  WS02006230WS02006229 CONDUIT   1015.63     0  02:04      2.64   22.60    1.00
  WS02006231WS02006230 CONDUIT    453.31     0  01:56      1.24    6.88    1.00
  WS02006232WS02006231 CONDUIT    453.45     0  02:00      1.18    0.95    1.00
  WS02006234WS02006232 CONDUIT    453.18     0  01:57      1.39    0.92    1.00
  WS02006235WS02006234 CONDUIT    419.60     0  03:46      1.09    4.43    1.00
  WS02006238WS02006235 CONDUIT    419.47     0  03:46      1.46    0.94    1.00
  WS02006239WS02006238 CONDUIT    419.38     0  03:46      1.09    1.34    1.00
  WS02006240WS02006239 CONDUIT    419.35     0  03:45      1.09    1.32    1.00
  WS02006242WS02006240 CONDUIT    419.31     0  03:45      1.09    1.67    1.00
  WS02006243WS02006242 CONDUIT    419.29     0  03:45      1.09    0.90    1.00
  WS02006245WS02006243 CONDUIT    419.28     0  03:45      1.14    1.24    1.00
  WS02006247WS02006245 CONDUIT    450.10     0  01:32      1.34    3.57    1.00
  WS02006248WS02006247 CONDUIT    470.73     0  01:32      1.38    1.02    1.00
  WS02006249WS02006248 CONDUIT    550.36     0  01:32      1.48    3.01    1.00
  WS02006251WS02006249 CONDUIT   1357.46     0  02:10      3.53    3.91    1.00
  WS02006252WS02006251 CONDUIT    417.09     0  01:33      3.32    1.53    1.00
  WS02006253WS02006251 CONDUIT   1608.21     0  02:10      4.18    4.82    1.00
  WS02006256WS02006235 CONDUIT    288.92     0  00:00      4.23    3.06    1.00
  WS02006280WS02006229 CONDUIT   2304.24     0  02:04      4.29    0.49    1.00
  WS02006284WS02006280 CONDUIT   2303.41     0  02:04      3.02    0.96    1.00
  WS02006287WS02006284 CONDUIT   2302.84     0  02:04      2.93    1.07    1.00
  WSF200WS02003060     CONDUIT   1301.96     0  02:06      2.37    0.29    0.50
  YS02001580YS02001583 CONDUIT     70.05     0  01:51      0.49    0.27    1.00
  YS02001583YS02001586 CONDUIT    119.41     0  01:51      0.49    0.18    1.00
  YS02001586YS02001590 CONDUIT    317.99     0  02:00      1.23    0.56    1.00
  YS02001590YS02001593 CONDUIT    318.06     0  02:00      1.12    2.00    1.00
  YS02001593YS02001596 CONDUIT    318.09     0  02:00      1.60    0.50    1.00
  YS02001596YS02001600 CONDUIT    318.04     0  02:00      1.12    0.62    1.00
  YS02001600YS02001601 CONDUIT    317.96     0  02:01      1.12    0.55    1.00
  YS02001601YS02001602 CONDUIT    494.88     0  01:51      1.75    1.79    1.00
  YS02001602YS02001605 CONDUIT    495.03     0  01:51      1.75   10.48    1.00
  YS02001605YS02001607 CONDUIT    495.31     0  01:51      1.75    2.72    1.00
  YS02001607YS02001610 CONDUIT    495.62     0  01:50      0.63    0.47    1.00
  YS02001610YS02001613 CONDUIT    496.38     0  01:50      0.63    0.57    1.00
  YS02001613YS02001616 CONDUIT    495.32     0  01:50      0.64    0.42    1.00
  YS02001616YS02001619 CONDUIT    498.58     0  01:51      0.67    0.87    1.00
  YS02001619YS02001622 CONDUIT    932.77     0  02:10      1.19    1.37    1.00
  YS02001622YS02001625 CONDUIT    932.71     0  02:10      1.19    0.50    1.00
  YS02001625YS02001629 CONDUIT    883.57     0  01:53      1.13    0.42    1.00
  YS02001629YS02163301 CONDUIT    898.13     0  01:52      1.14    1.11    1.00
  YS02001633YS02163601 CONDUIT   1218.96     0  01:53      1.55    1.28    1.00
  YS02001641YS02001644 CONDUIT   1217.06     0  01:53      1.55    3.93    1.00
  YS02001644YS02001647 CONDUIT   1525.43     0  01:54      2.05    0.90    1.00
  YS02001647YS02001649 CONDUIT   1530.60     0  01:54      2.18    0.81    1.00
  YS02001649YS02001757 CONDUIT   1678.46     0  01:53      2.19    1.02    1.00
  YS02001652YS02001649 CONDUIT    767.86     0  02:10      0.98    0.38    1.00
  YS02001655YS02001652 CONDUIT    768.12     0  02:10      1.32    0.37    1.00
  YS02001658YS02001655 CONDUIT    767.76     0  02:10      1.78    0.33    1.00
  YS02001661YS02001658 CONDUIT    767.72     0  02:10      2.09    0.30    1.00
  YS02001664YS02001661 CONDUIT    788.06     0  02:04      1.97    0.25    0.76
  YS02001745YS02001748 CONDUIT    474.19     0  02:05      1.93    0.18    0.92
  YS02001748YS02001751 CONDUIT    473.18     0  02:05      1.56    0.24    1.00
  YS02001751YS02001754 CONDUIT    472.90     0  02:05      1.40    0.23    1.00
  YS02001754YS02001757 CONDUIT    472.78     0  02:05      0.60    0.19    1.00
  YS02001757CaochengTiaoxuchi CONDUIT   2723.35     0  02:01      3.47    1.18    1.00
  YS02001759YS02001757 CONDUIT   1110.83     0  02:02      1.41    0.79    1.00
  YS02001762YS02001759 CONDUIT    613.88     0  02:00      0.78    0.71    1.00
  YS02001765YS02001762 CONDUIT    614.17     0  02:00      0.78    0.58    1.00
  YS02001767YS02001765 CONDUIT    614.84     0  02:00      0.78    0.77    1.00
  YS02001770YS02001767 CONDUIT    614.80     0  02:00      0.78    2.44    1.00
  YS02001774YS02001770 CONDUIT    560.41     0  02:10      0.71    0.36    1.00
  YS02001779YS02001774 CONDUIT    560.27     0  02:09      0.71    0.28    1.00
  YS02001783YS02001784 CONDUIT   1159.79     0  02:08      2.31    1.60    1.00
  YS02001784YS02001785 CONDUIT   1160.84     0  02:08      2.31    2.70    1.00
  YS02001786YS02001788 CONDUIT   1160.77     0  02:04      2.48    2.24    1.00
  YS02001788YS02001790 CONDUIT   1211.84     0  02:01      2.75    0.89    1.00
  YS02001790YS02001791 CONDUIT   1359.17     0  02:01      3.45    1.48    1.00
  YS02001791YS02001793 CONDUIT   1418.28     0  02:01      6.73    0.61    1.00
  YS02001793JiankangQianchi CONDUIT   1703.64     0  02:01     24.96    0.14    1.00
  YS02001882YS02001884 CONDUIT     31.17     0  01:55      0.17    0.04    1.00
  YS02001884YS02001887 CONDUIT     36.94     0  01:51      0.12    0.05    1.00
  YS02001887YS02001890 CONDUIT    693.23     0  02:05      0.88    1.19    1.00
  YS02001890YS02001895 CONDUIT    517.46     0  02:06      0.66    0.24    1.00
  YS02001895YS02001898 CONDUIT    517.45     0  02:06      0.66    0.90    1.00
  YS02001898YS02001901 CONDUIT    517.40     0  02:08      0.66    0.33    1.00
  YS02001901YS02001904 CONDUIT    517.32     0  02:06      0.66    0.80    1.00
  YS02001904YS02001907 CONDUIT    517.25     0  02:08      0.66    0.18    1.00
  YS02001907YS02006553 CONDUIT    794.36     0  02:26      0.88    0.93    1.00
  YS02001910YS02001907 CONDUIT   1340.11     0  02:10      1.71    0.76    1.00
  YS02001915YS02001910 CONDUIT   1339.95     0  02:09      1.71    0.67    1.00
  YS02001918YS02001915 CONDUIT    461.99     0  01:59      0.59    0.25    1.00
  YS02001920YS02001918 CONDUIT    460.63     0  02:10      0.64    0.45    1.00
  YS02001923YS02001920 CONDUIT    457.75     0  02:10      0.70    0.21    1.00
  YS02001926YS02001923 CONDUIT    455.93     0  02:10      0.93    0.65    1.00
  YS02001929YS02001926 CONDUIT    455.26     0  02:10      1.08    0.22    1.00
  YS02006553YS02006556 CONDUIT    794.27     0  02:26      1.01    0.68    1.00
  YS02006556YS02006558 CONDUIT    794.57     0  02:26      1.01    0.63    1.00
  YS02006558YS02006561 CONDUIT   1159.80     0  02:08      4.10    2.56    1.00
  YS02006561YS02001783 CONDUIT   1159.72     0  02:08      2.31    0.60    1.00
  YS02163301YS02001633 CONDUIT    898.24     0  01:52      1.14    0.84    1.00
  YS02163601YS02164001 CONDUIT   1218.85     0  01:53      1.55    1.08    1.00
  YS02164001YS02001641 CONDUIT   1218.49     0  01:53      1.55    1.66    1.00
  YSB1154YSB6556       CONDUIT    394.06     0  02:10      1.02    0.71    1.00
  YSB1171HS02004479    CONDUIT    396.63     0  01:58      0.79    0.26    1.00
  YSB1174YSB1171       CONDUIT    325.77     0  02:05      0.85    0.50    1.00
  YSB6556YSB1171       CONDUIT    394.14     0  02:09      1.02    0.41    1.00
  CC-R1                PUMP       683.00     0  02:00              1.00
  CC-R2                PUMP       683.00     0  02:10              1.00
  CC-S1                PUMP       200.00     0  01:30              1.00
  CC-S2                PUMP       200.00     0  01:30              1.00
  JK-R1                PUMP      1000.00     0  00:00              1.00
  JK-R2                PUMP      1000.00     0  01:40              1.00
  JK-S                 PUMP       300.00     0  00:00              1.00
  XR-1                 PUMP        95.00     0  00:10              1.00
  XR-2                 PUMP        95.00     0  00:29              1.00
  XR-3                 PUMP         0.00     0  00:00              0.00
  XR-4                 PUMP         0.00     0  00:00              0.00
  
  
  ***************************
  Flow Classification Summary
  ***************************
  
  -------------------------------------------------------------------------------------
                      Adjusted    ---------- Fraction of Time in Flow Class ---------- 
                       /Actual         Up    Down  Sub   Sup   Up    Down  Norm  Inlet 
  Conduit               Length    Dry  Dry   Dry   Crit  Crit  Crit  Crit  Ltd   Ctrl  
  -------------------------------------------------------------------------------------
  1                       1.00   0.00  0.00  0.00  0.00  1.00  0.00  0.00  0.45  0.00
  HS02004478WS02006287    1.00   0.06  0.00  0.00  0.65  0.29  0.00  0.00  0.44  0.00
  HS02004479HS02004480    1.00   0.02  0.00  0.00  0.98  0.00  0.00  0.00  0.14  0.00
  HS02004480HS02004478    1.00   0.05  0.00  0.00  0.59  0.00  0.00  0.36  0.00  0.00
  HS02004770HS02004777    1.00   0.00  0.05  0.00  0.95  0.00  0.00  0.00  0.03  0.00
  HS02004777HS02004785    1.00   0.00  0.00  0.00  1.00  0.00  0.00  0.00  0.14  0.00
  HS02004785HS02004788    1.00   0.00  0.00  0.00  1.00  0.00  0.00  0.00  0.00  0.00
  HS02004788HS02004792    1.00   0.00  0.00  0.00  0.99  0.01  0.00  0.00  0.83  0.00
  HS02004792HS02004799    1.00   0.00  0.00  0.00  0.99  0.01  0.00  0.00  0.75  0.00
  HS02004799HS02004480    1.00   0.00  0.02  0.00  0.94  0.00  0.04  0.00  0.00  0.00
  HS02004802HS02004478    1.00   0.05  0.00  0.00  0.95  0.00  0.00  0.00  0.02  0.00
  HS02004807HS02004802    1.00   0.05  0.00  0.00  0.94  0.00  0.00  0.01  0.00  0.00
  HS02004817HS02004807    1.00   0.00  0.05  0.00  0.95  0.00  0.00  0.00  0.01  0.00
  HS02004817HS02004824    1.00   0.00  0.00  0.00  1.00  0.00  0.00  0.00  0.71  0.00
  HS02004824HS02004830    1.00   0.00  0.00  0.00  1.00  0.00  0.00  0.00  0.01  0.00
  HS02004830HS02004837    1.00   0.00  0.00  0.00  1.00  0.00  0.00  0.00  0.79  0.00
  HS02004837HS02004842    1.00   0.00  0.00  0.00  0.99  0.01  0.00  0.00  0.14  0.00
  HS02004842HS02004848    1.00   0.00  0.05  0.00  0.95  0.00  0.00  0.00  0.38  0.00
  HS02004848HS02004852    1.00   0.05  0.00  0.00  0.95  0.00  0.00  0.00  0.58  0.00
  HS02004852HS02004856    1.00   0.05  0.00  0.00  0.95  0.00  0.00  0.00  0.52  0.00
  HS02004856HS02004862    1.00   0.00  0.06  0.00  0.94  0.00  0.00  0.00  0.62  0.00
  HS02004862HS02004870    1.00   0.00  0.00  0.00  1.00  0.00  0.00  0.00  0.03  0.00
  HS02004870HS02004876    1.00   0.01  0.00  0.00  0.99  0.00  0.00  0.00  0.77  0.00
  HS02004876HS02004881    1.00   0.01  0.00  0.00  0.73  0.26  0.00  0.00  0.00  0.00
  HS02004881HS02006253    1.00   0.03  0.00  0.00  0.89  0.00  0.00  0.08  0.61  0.00
  HS02004901HS02004770    1.00   0.05  0.00  0.00  0.95  0.00  0.00  0.00  0.00  0.00
  WS02001211WS02001212    1.00   0.00  0.02  0.00  0.98  0.00  0.00  0.00  0.00  0.00
  WS02001212WS02001213    1.00   0.02  0.00  0.00  0.87  0.00  0.11  0.00  0.00  0.00
  WS02001213WS02003059    1.00   0.00  0.00  0.00  0.99  0.00  0.00  0.00  0.00  0.00
  WS02003059WS02003060    1.00   0.00  0.00  0.00  1.00  0.00  0.00  0.00  0.04  0.00
  WS02003060WS02003069    1.00   0.00  0.00  0.00  0.99  0.01  0.00  0.00  0.20  0.00
  WS02003066WSF200        1.00   0.12  0.00  0.00  0.00  0.88  0.00  0.00  0.32  0.00
  WS02003067WS02003066    1.00   0.11  0.00  0.00  0.89  0.00  0.00  0.00  0.00  0.00
  WS02003069WS02003072    1.00   0.00  0.00  0.00  1.00  0.00  0.00  0.00  0.24  0.00
  WS02003072WS02003073    1.00   0.00  0.00  0.00  0.00  0.00  0.00  1.00  0.00  0.00
  WS02004138WS02004139    1.00   0.01  0.00  0.00  0.98  0.00  0.00  0.00  0.97  0.00
  WS02004139WS02001211    1.00   0.00  0.01  0.00  0.99  0.00  0.00  0.00  0.01  0.00
  WS02004401WS02004402    1.00   0.02  0.00  0.00  0.98  0.00  0.00  0.00  0.04  0.00
  WS02004402WS02004403    1.00   0.02  0.00  0.00  0.98  0.00  0.00  0.00  0.00  0.00
  WS02004403WS02004404    1.00   0.00  0.02  0.00  0.98  0.00  0.00  0.00  0.04  0.00
  WS02004404WS02004405    1.00   0.00  0.00  0.00  1.00  0.00  0.00  0.00  0.00  0.00
  WS02004405WS02004406    1.00   0.00  0.00  0.00  1.00  0.00  0.00  0.00  0.04  0.00
  WS02004406WS02004407    1.00   0.00  0.08  0.00  0.92  0.00  0.00  0.00  0.00  0.00
  WS02004407WS02004409    1.00   0.08  0.00  0.00  0.89  0.02  0.00  0.00  0.52  0.00
  WS02004409WS02004410    1.00   0.08  0.00  0.00  0.91  0.00  0.00  0.00  0.00  0.00
  WS02004410WS02004411    1.00   0.09  0.00  0.00  0.91  0.00  0.00  0.00  0.00  0.00
  WS02004411WS02004412    1.00   0.09  0.00  0.00  0.91  0.00  0.00  0.00  0.00  0.00
  WS02004412WS02004413    1.00   0.09  0.00  0.00  0.90  0.01  0.00  0.00  0.00  0.00
  WS02004413WS02003067    1.00   0.09  0.01  0.00  0.00  0.00  0.89  0.00  0.00  0.00
  WS02006109WS02006110    1.00   0.00  0.01  0.00  0.99  0.00  0.00  0.00  0.00  0.00
  WS02006110WS02006113    1.00   0.01  0.00  0.00  0.99  0.00  0.00  0.00  0.00  0.00
  WS02006111WS02006112    1.00   0.01  0.00  0.00  0.98  0.00  0.00  0.00  0.64  0.00
  WS02006112WS02006115    1.00   0.01  0.01  0.00  0.98  0.00  0.00  0.00  0.00  0.00
  WS02006113WS02006111    1.00   0.01  0.00  0.00  0.39  0.60  0.00  0.00  0.13  0.00
  WS02006115WS02006116    1.00   0.02  0.00  0.00  0.95  0.00  0.00  0.03  0.00  0.00
  WS02006116WS02004401    1.00   0.02  0.00  0.00  0.98  0.00  0.00  0.00  0.01  0.00
  WS02006228WS02006109    1.00   0.00  0.00  0.00  1.00  0.00  0.00  0.00  0.00  0.00
  WS02006229WS02006228    1.00   0.00  0.00  0.00  0.99  0.00  0.00  0.01  0.00  0.00
  WS02006230WS02006229    1.00   0.00  0.00  0.00  0.99  0.00  0.00  0.01  0.02  0.00
  WS02006231WS02006230    1.00   0.00  0.00  0.00  0.93  0.00  0.07  0.00  0.00  0.00
  WS02006232WS02006231    1.00   0.00  0.00  0.00  0.99  0.00  0.00  0.00  0.00  0.00
  WS02006234WS02006232    1.00   0.00  0.00  0.00  1.00  0.00  0.00  0.00  0.11  0.00
  WS02006235WS02006234    1.00   0.00  0.00  0.00  0.95  0.00  0.05  0.00  0.00  0.00
  WS02006238WS02006235    1.00   0.00  0.00  0.00  1.00  0.00  0.00  0.00  0.00  0.00
  WS02006239WS02006238    1.00   0.00  0.00  0.00  1.00  0.00  0.00  0.00  0.07  0.00
  WS02006240WS02006239    1.00   0.00  0.00  0.00  0.93  0.00  0.00  0.07  0.01  0.00
  WS02006242WS02006240    1.00   0.00  0.00  0.00  0.98  0.00  0.01  0.00  0.00  0.00
  WS02006243WS02006242    1.00   0.01  0.00  0.00  0.98  0.00  0.00  0.01  0.20  0.00
  WS02006245WS02006243    1.00   0.01  0.01  0.00  0.92  0.00  0.00  0.06  0.00  0.00
  WS02006247WS02006245    1.00   0.01  0.00  0.00  0.94  0.00  0.00  0.04  0.00  0.00
  WS02006248WS02006247    1.00   0.01  0.00  0.00  0.97  0.00  0.00  0.02  0.02  0.00
  WS02006249WS02006248    1.00   0.00  0.01  0.00  0.92  0.00  0.07  0.00  0.00  0.00
  WS02006251WS02006249    1.00   0.00  0.00  0.00  1.00  0.00  0.00  0.00  0.18  0.00
  WS02006252WS02006251    1.00   0.11  0.00  0.00  0.54  0.00  0.36  0.00  0.00  0.00
  WS02006253WS02006251    1.00   0.02  0.02  0.00  0.95  0.00  0.01  0.00  0.00  0.00
  WS02006256WS02006235    1.00   0.00  0.00  0.00  1.00  0.00  0.00  0.00  0.00  0.00
  WS02006280WS02006229    1.00   0.06  0.00  0.00  0.35  0.03  0.00  0.57  0.01  0.00
  WS02006284WS02006280    1.00   0.06  0.00  0.00  0.27  0.02  0.00  0.66  0.00  0.00
  WS02006287WS02006284    1.00   0.04  0.02  0.00  0.55  0.39  0.00  0.00  0.52  0.00
  WSF200WS02003060        1.00   0.00  0.12  0.00  0.01  0.88  0.00  0.00  0.00  0.00
  YS02001580YS02001583    1.00   0.18  0.39  0.00  0.44  0.00  0.00  0.00  0.50  0.00
  YS02001583YS02001586    1.00   0.11  0.39  0.00  0.49  0.00  0.00  0.00  0.50  0.00
  YS02001586YS02001590    1.00   0.05  0.00  0.00  0.69  0.03  0.00  0.23  0.45  0.00
  YS02001590YS02001593    1.00   0.05  0.00  0.00  0.32  0.00  0.63  0.00  0.00  0.00
  YS02001593YS02001596    1.00   0.05  0.00  0.00  0.36  0.02  0.00  0.57  0.04  0.00
  YS02001596YS02001600    1.00   0.05  0.00  0.00  0.61  0.01  0.00  0.33  0.15  0.00
  YS02001600YS02001601    1.00   0.05  0.00  0.00  0.95  0.00  0.00  0.00  0.26  0.00
  YS02001601YS02001602    1.00   0.05  0.00  0.00  0.95  0.00  0.00  0.00  0.00  0.00
  YS02001602YS02001605    1.00   0.05  0.00  0.00  0.95  0.00  0.00  0.00  0.00  0.00
  YS02001605YS02001607    1.00   0.05  0.00  0.00  0.95  0.00  0.00  0.00  0.00  0.00
  YS02001607YS02001610    1.00   0.05  0.00  0.00  0.95  0.00  0.00  0.00  0.01  0.00
  YS02001610YS02001613    1.00   0.05  0.00  0.00  0.95  0.00  0.00  0.00  0.00  0.00
  YS02001613YS02001616    1.00   0.05  0.00  0.00  0.95  0.00  0.00  0.00  0.00  0.00
  YS02001616YS02001619    1.00   0.05  0.00  0.00  0.95  0.00  0.00  0.00  0.00  0.00
  YS02001619YS02001622    1.00   0.05  0.00  0.00  0.95  0.00  0.00  0.00  0.03  0.00
  YS02001622YS02001625    1.00   0.05  0.00  0.00  0.95  0.00  0.00  0.00  0.04  0.00
  YS02001625YS02001629    1.00   0.05  0.02  0.00  0.65  0.00  0.28  0.00  0.00  0.00
  YS02001629YS02163301    1.00   0.06  0.00  0.00  0.94  0.00  0.00  0.00  0.00  0.00
  YS02001633YS02163601    1.00   0.00  0.01  0.00  0.99  0.00  0.00  0.00  0.19  0.00
  YS02001641YS02001644    1.00   0.00  0.01  0.00  0.99  0.00  0.00  0.00  0.00  0.00
  YS02001644YS02001647    1.00   0.00  0.06  0.00  0.94  0.00  0.00  0.00  0.00  0.00
  YS02001647YS02001649    1.00   0.00  0.06  0.00  0.90  0.04  0.00  0.00  0.04  0.00
  YS02001649YS02001757    1.00   0.00  0.00  0.00  0.93  0.07  0.00  0.00  0.23  0.00
  YS02001652YS02001649    1.00   0.00  0.00  0.00  0.98  0.02  0.00  0.00  0.20  0.00
  YS02001655YS02001652    1.00   0.00  0.00  0.00  0.87  0.01  0.00  0.12  0.12  0.00
  YS02001658YS02001655    1.00   0.00  0.05  0.00  0.81  0.14  0.00  0.00  0.25  0.00
  YS02001661YS02001658    1.00   0.05  0.00  0.00  0.80  0.15  0.00  0.00  0.40  0.00
  YS02001664YS02001661    1.00   0.05  0.00  0.00  0.83  0.12  0.00  0.00  0.76  0.00
  YS02001745YS02001748    1.00   0.00  0.00  0.00  0.53  0.00  0.00  0.47  0.19  0.00
  YS02001748YS02001751    1.00   0.00  0.00  0.00  0.86  0.14  0.00  0.00  0.36  0.00
  YS02001751YS02001754    1.00   0.00  0.00  0.00  0.81  0.01  0.00  0.18  0.11  0.00
  YS02001754YS02001757    1.00   0.00  0.00  0.00  1.00  0.00  0.00  0.00  0.28  0.00
  YS02001757CaochengTiaoxuchi    1.00   0.00  0.00  0.00  1.00  0.00  0.00  0.00  0.12  0.00
  YS02001759YS02001757    1.00   0.00  0.00  0.00  1.00  0.00  0.00  0.00  0.19  0.00
  YS02001762YS02001759    1.00   0.00  0.00  0.00  1.00  0.00  0.00  0.00  0.03  0.00
  YS02001765YS02001762    1.00   0.00  0.00  0.00  1.00  0.00  0.00  0.00  0.17  0.00
  YS02001767YS02001765    1.00   0.00  0.00  0.00  1.00  0.00  0.00  0.00  0.00  0.00
  YS02001770YS02001767    1.00   0.00  0.00  0.00  1.00  0.00  0.00  0.00  0.00  0.00
  YS02001774YS02001770    1.00   0.00  0.05  0.00  0.95  0.00  0.00  0.00  0.03  0.00
  YS02001779YS02001774    1.00   0.00  0.00  0.00  1.00  0.00  0.00  0.00  0.24  0.00
  YS02001783YS02001784    1.00   0.00  0.07  0.00  0.93  0.00  0.00  0.00  0.39  0.00
  YS02001784YS02001785    1.00   0.00  0.00  0.00  1.00  0.00  0.00  0.00  0.20  0.00
  YS02001786YS02001788    1.00   0.00  0.00  0.00  0.62  0.38  0.00  0.00  0.00  0.00
  YS02001788YS02001790    1.00   0.00  0.00  0.00  0.16  0.84  0.00  0.00  0.70  0.00
  YS02001790YS02001791    1.00   0.00  0.00  0.00  0.02  0.98  0.00  0.00  0.21  0.00
  YS02001791YS02001793    1.00   0.00  0.00  0.00  0.01  0.99  0.00  0.00  0.02  0.00
  YS02001793JiankangQianchi    1.00   0.00  0.00  0.00  0.13  0.87  0.00  0.00  0.15  0.00
  YS02001882YS02001884    1.00   0.06  0.00  0.00  0.94  0.00  0.00  0.00  0.00  0.00
  YS02001884YS02001887    1.00   0.03  0.02  0.00  0.95  0.00  0.00  0.00  0.00  0.00
  YS02001887YS02001890    1.00   0.00  0.00  0.00  0.98  0.00  0.02  0.00  0.00  0.00
  YS02001890YS02001895    1.00   0.00  0.06  0.00  0.94  0.00  0.00  0.00  0.00  0.00
  YS02001895YS02001898    1.00   0.06  0.00  0.00  0.92  0.00  0.02  0.00  0.00  0.00
  YS02001898YS02001901    1.00   0.06  0.00  0.00  0.94  0.00  0.00  0.00  0.01  0.00
  YS02001901YS02001904    1.00   0.06  0.00  0.00  0.94  0.00  0.00  0.00  0.00  0.00
  YS02001904YS02001907    1.00   0.00  0.06  0.00  0.94  0.00  0.00  0.00  0.00  0.00
  YS02001907YS02006553    1.00   0.00  0.01  0.00  0.98  0.00  0.00  0.00  0.00  0.00
  YS02001910YS02001907    1.00   0.00  0.00  0.00  0.98  0.00  0.00  0.02  0.15  0.00
  YS02001915YS02001910    1.00   0.00  0.00  0.00  0.99  0.01  0.00  0.00  0.18  0.00
  YS02001918YS02001915    1.00   0.00  0.01  0.00  0.99  0.01  0.00  0.00  0.61  0.00
  YS02001920YS02001918    1.00   0.00  0.01  0.00  0.99  0.00  0.00  0.00  0.00  0.00
  YS02001923YS02001920    1.00   0.00  0.00  0.00  1.00  0.00  0.00  0.00  0.87  0.00
  YS02001926YS02001923    1.00   0.00  0.03  0.00  0.15  0.00  0.82  0.00  0.00  0.00
  YS02001929YS02001926    1.00   0.00  0.05  0.00  0.95  0.00  0.00  0.00  0.74  0.00
  YS02006553YS02006556    1.00   0.01  0.00  0.00  0.99  0.00  0.00  0.00  0.04  0.00
  YS02006556YS02006558    1.00   0.00  0.00  0.00  1.00  0.00  0.00  0.00  0.00  0.00
  YS02006558YS02006561    1.00   0.07  0.00  0.00  0.14  0.79  0.00  0.00  0.23  0.00
  YS02006561YS02001783    1.00   0.07  0.00  0.00  0.22  0.71  0.00  0.00  0.54  0.00
  YS02163301YS02001633    1.00   0.00  0.06  0.00  0.94  0.00  0.00  0.00  0.00  0.00
  YS02163601YS02164001    1.00   0.00  0.04  0.00  0.96  0.00  0.00  0.00  0.00  0.00
  YS02164001YS02001641    1.00   0.01  0.03  0.00  0.96  0.00  0.00  0.00  0.07  0.00
  YSB1154YSB6556          1.00   0.05  0.00  0.00  0.95  0.00  0.00  0.00  0.02  0.00
  YSB1171HS02004479       1.00   0.02  0.00  0.00  0.97  0.00  0.00  0.00  0.13  0.00
  YSB1174YSB1171          1.00   0.02  0.01  0.00  0.96  0.00  0.00  0.00  0.00  0.00
  YSB6556YSB1171          1.00   0.02  0.03  0.00  0.95  0.00  0.00  0.00  0.00  0.00
  
  
  *************************
  Conduit Surcharge Summary
  *************************
  
  ----------------------------------------------------------------------------
                                                           Hours        Hours 
                         --------- Hours Full --------   Above Full   Capacity
  Conduit                Both Ends  Upstream  Dnstream   Normal Flow   Limited
  ----------------------------------------------------------------------------
  HS02004478WS02006287        0.65      0.65      0.88      0.01         0.01
  HS02004479HS02004480        0.87      0.87      0.90      0.01         0.01
  HS02004480HS02004478        0.78      0.86      0.78      1.90         0.78
  HS02004770HS02004777        0.74      0.74      0.75      0.15         0.10
  HS02004777HS02004785        0.69      0.69      0.75      0.01         0.01
  HS02004785HS02004788        0.68      0.69      0.68      1.70         0.63
  HS02004788HS02004792        0.68      0.68      0.82      0.01         0.01
  HS02004792HS02004799        0.82      0.82      0.99      0.01         0.01
  HS02004799HS02004480        0.86      0.86      0.99      1.14         0.01
  HS02004802HS02004478        0.80      0.80      0.89      0.15         0.01
  HS02004807HS02004802        0.85      0.85      0.88      0.34         0.35
  HS02004817HS02004807        0.85      0.85      1.55      0.01         0.01
  HS02004817HS02004824        0.67      0.67      1.55      0.01         0.01
  HS02004824HS02004830        0.64      0.64      0.67      0.01         0.01
  HS02004830HS02004837        0.59      0.59      0.64      0.01         0.01
  HS02004837HS02004842        0.59      0.59      0.76      0.01         0.01
  HS02004842HS02004848        0.54      0.54      0.76      0.01         0.01
  HS02004848HS02004852        0.54      0.54      0.57      0.03         0.01
  HS02004852HS02004856        0.57      0.57      0.59      0.03         0.01
  HS02004856HS02004862        0.55      0.55      0.59      0.01         0.01
  HS02004862HS02004870        0.59      0.59      0.61      0.29         0.26
  HS02004870HS02004876        0.61      0.61      0.67      0.01         0.01
  HS02004876HS02004881        0.65      0.67      0.65      1.72         0.64
  HS02004881HS02006253        0.65      0.65      2.50      0.01         0.01
  HS02004901HS02004770        0.74      0.74      0.75      0.08         0.01
  WS02003072WS02003073        0.01      0.01      0.01      4.38         0.01
  WS02004401WS02004402        1.76      1.76      1.80      1.61         1.60
  WS02004402WS02004403        1.80      1.80      1.81      1.76         1.75
  WS02004403WS02004404        1.81      1.81      1.97      0.01         0.03
  WS02004404WS02004405        1.93      1.97      1.93      4.58         1.93
  WS02004405WS02004406        1.90      1.93      1.90      2.36         1.90
  WS02004406WS02004407        0.01      0.01      1.90      0.01         0.01
  WS02004407WS02004409        0.01      0.01      1.35      0.01         0.01
  WS02004409WS02004410        1.27      1.35      1.27      1.67         1.27
  WS02004410WS02004411        1.16      1.27      1.16      1.72         1.16
  WS02004411WS02004412        1.04      1.16      1.04      1.76         1.04
  WS02004412WS02004413        1.04      1.04      1.55      0.01         0.01
  WS02004413WS02003067        0.01      0.01      1.55      0.01         0.01
  WS02006109WS02006110        2.29      2.29      4.55      2.29         0.01
  WS02006110WS02006113        1.53      1.53      4.54      0.37         0.01
  WS02006111WS02006112        1.52      1.52      4.53      0.01         0.01
  WS02006112WS02006115        1.68      1.68      2.48      0.01         0.01
  WS02006113WS02006111        1.53      1.53      1.53      1.61         1.53
  WS02006115WS02006116        1.69      1.69      1.69      1.67         1.65
  WS02006116WS02004401        1.76      1.76      1.76      1.74         1.71
  WS02006228WS02006109        4.54      4.55      4.54      4.63         4.54
  WS02006229WS02006228        4.54      4.54      4.54      4.60         4.54
  WS02006230WS02006229        4.56      4.56      4.56      4.58         3.09
  WS02006231WS02006230        2.04      2.04      2.33      4.48         1.36
  WS02006232WS02006231        2.29      2.29      4.48      0.01         0.20
  WS02006234WS02006232        4.45      4.45      4.48      0.01         0.01
  WS02006235WS02006234        4.07      4.07      4.46      4.31         1.34
  WS02006238WS02006235        4.46      4.46      4.46      0.01         0.45
  WS02006239WS02006238        4.46      4.46      4.46      3.87         2.81
  WS02006240WS02006239        4.46      4.46      4.46      3.86         2.80
  WS02006242WS02006240        4.46      4.46      4.46      3.98         1.12
  WS02006243WS02006242        4.46      4.46      4.46      0.01         0.01
  WS02006245WS02006243        4.45      4.45      4.46      2.76         2.77
  WS02006247WS02006245        4.45      4.46      4.45      4.26         2.99
  WS02006248WS02006247        4.45      4.45      4.46      0.01         0.01
  WS02006249WS02006248        4.45      4.45      4.46      2.97         0.01
  WS02006251WS02006249        4.46      4.47      4.46      4.48         4.44
  WS02006252WS02006251        4.48      4.48      4.49      3.66         0.01
  WS02006253WS02006251        4.47      4.47      4.47      1.04         0.01
  WS02006256WS02006235        4.57      4.57      4.92      0.06         0.01
  WS02006280WS02006229        1.05      1.05      1.19      0.01         0.01
  WS02006284WS02006280        0.91      0.91      1.02      0.01         0.01
  WS02006287WS02006284        0.78      0.78      0.92      0.40         0.40
  YS02001580YS02001583        0.82      0.82      0.90      0.01         0.01
  YS02001583YS02001586        0.83      0.83      1.09      0.01         0.01
  YS02001586YS02001590        1.10      1.10      1.21      0.01         0.01
  YS02001590YS02001593        1.21      1.21      1.23      1.19         0.01
  YS02001593YS02001596        1.23      1.23      1.34      0.01         0.01
  YS02001596YS02001600        1.40      1.40      1.52      0.01         0.01
  YS02001600YS02001601        1.60      1.60      2.35      0.01         0.01
  YS02001601YS02001602        2.17      2.17      2.42      1.45         0.01
  YS02001602YS02001605        2.13      2.13      2.17      2.47         0.01
  YS02001605YS02001607        2.09      2.13      2.25      1.66         1.53
  YS02001607YS02001610        1.27      1.27      1.30      0.01         0.01
  YS02001610YS02001613        1.27      1.27      1.30      0.01         0.01
  YS02001613YS02001616        1.22      1.22      1.27      0.01         0.01
  YS02001616YS02001619        1.21      1.21      1.22      0.01         0.03
  YS02001619YS02001622        1.21      1.21      1.21      1.05         0.89
  YS02001622YS02001625        1.21      1.21      1.58      0.01         0.01
  YS02001625YS02001629        1.17      1.17      1.58      0.01         0.01
  YS02001629YS02163301        1.75      1.75      1.86      0.06         0.06
  YS02001633YS02163601        2.00      2.00      2.23      0.11         0.11
  YS02001641YS02001644        2.05      2.07      2.06      1.70         1.32
  YS02001644YS02001647        1.34      1.34      2.06      0.01         0.01
  YS02001647YS02001649        1.34      1.34      2.13      0.01         0.01
  YS02001649YS02001757        2.13      2.13      2.50      0.01         0.02
  YS02001652YS02001649        1.39      1.39      2.13      0.01         0.01
  YS02001655YS02001652        1.03      1.03      1.25      0.01         0.01
  YS02001658YS02001655        0.56      0.56      1.03      0.01         0.01
  YS02001661YS02001658        0.02      0.02      0.56      0.01         0.01
  YS02001664YS02001661        0.01      0.01      0.17      0.01         0.01
  YS02001745YS02001748        0.01      0.01      0.39      0.01         0.01
  YS02001748YS02001751        0.54      0.54      0.88      0.01         0.01
  YS02001751YS02001754        0.88      0.88      1.20      0.01         0.01
  YS02001754YS02001757        1.27      1.27      2.50      0.01         0.01
  YS02001757CaochengTiaoxuchi        2.50      2.50      4.29      0.28         0.28
  YS02001759YS02001757        2.19      2.19      2.50      0.01         0.01
  YS02001762YS02001759        2.09      2.09      2.19      0.01         0.01
  YS02001765YS02001762        1.94      1.94      2.09      0.01         0.01
  YS02001767YS02001765        1.81      1.81      1.94      0.01         0.01
  YS02001770YS02001767        1.80      1.80      1.81      0.62         0.60
  YS02001774YS02001770        1.70      1.70      2.02      0.01         0.01
  YS02001779YS02001774        1.17      1.17      2.02      0.01         0.01
  YS02001783YS02001784        0.67      0.70      0.67      0.92         0.67
  YS02001784YS02001785        0.54      0.67      0.54      1.26         0.54
  YS02001786YS02001788        0.02      0.54      0.02      1.06         0.02
  YS02001788YS02001790        0.02      0.02      0.03      0.01         0.01
  YS02001790YS02001791        0.02      0.03      0.02      0.66         0.02
  YS02001791YS02001793        0.02      0.02      0.05      0.01         0.01
  YS02001793JiankangQianchi        0.04      0.04      0.64      0.01         0.01
  YS02001882YS02001884        0.63      0.63      0.64      0.01         0.01
  YS02001884YS02001887        0.67      0.67      0.69      0.01         0.01
  YS02001887YS02001890        0.71      0.71      0.72      0.15         0.01
  YS02001890YS02001895        0.62      0.62      0.75      0.01         0.01
  YS02001895YS02001898        0.61      0.61      0.62      0.01         0.01
  YS02001898YS02001901        0.62      0.62      0.67      0.01         0.01
  YS02001901YS02001904        0.66      0.66      0.67      0.01         0.01
  YS02001904YS02001907        0.66      0.66      1.04      0.01         0.01
  YS02001907YS02006553        1.27      1.27      1.37      0.01         0.01
  YS02001910YS02001907        0.74      0.74      1.01      0.01         0.01
  YS02001915YS02001910        0.63      0.63      0.74      0.01         0.01
  YS02001918YS02001915        0.52      0.52      0.63      0.01         0.01
  YS02001920YS02001918        0.52      0.52      0.54      0.01         0.01
  YS02001923YS02001920        0.47      0.47      0.54      0.01         0.01
  YS02001926YS02001923        0.11      0.11      0.16      0.01         0.01
  YS02001929YS02001926        0.01      0.01      0.16      0.01         0.01
  YS02006553YS02006556        0.87      0.87      1.04      0.01         0.01
  YS02006556YS02006558        0.95      0.95      1.07      0.01         0.01
  YS02006558YS02006561        0.56      0.85      0.56      1.20         0.56
  YS02006561YS02001783        0.49      0.49      0.70      0.01         0.01
  YS02163301YS02001633        1.86      1.86      2.07      0.01         0.01
  YS02163601YS02164001        2.01      2.01      2.23      0.07         0.01
  YS02164001YS02001641        2.00      2.01      2.07      0.59         0.51
  YSB1154YSB6556              0.95      0.95      1.18      0.01         0.01
  YSB1171HS02004479           0.81      0.81      1.19      0.01         0.01
  YSB1174YSB1171              1.05      1.05      1.49      0.01         0.01
  YSB6556YSB1171              0.95      0.95      1.61      0.01         0.01
  
  
  ***************
  Pumping Summary
  ***************
  
  ---------------------------------------------------------------------------------------------------------
                                                  Min       Avg       Max     Total     Power    % Time Off
                        Percent   Number of      Flow      Flow      Flow    Volume     Usage    Pump Curve
  Pump                 Utilized   Start-Ups       LPS       LPS       LPS  10^6 ltr     Kw-hr    Low   High
  ---------------------------------------------------------------------------------------------------------
  CC-R1                   19.46           1      0.00    683.00    683.00     2.871     59.22    0.0   83.8
  CC-R2                   11.12           1      0.00    683.00    683.00     1.640     34.02    0.0   96.7
  CC-S1                   72.09           2      0.00    200.00    200.00     3.114     15.19    0.0   34.3
  CC-S2                   66.53           3      0.00    200.00    200.00     2.874     13.94    0.0   28.8
  JK-R1                   88.88           5      0.00    286.53   1000.00     3.753     13.86    0.0    0.0
  JK-R2                   25.04           6      0.00    595.59   1000.00     2.059      8.36    0.0    0.0
  JK-S                    25.06           5      0.00    233.97    300.00     0.766     14.38    0.0    0.0
  XR-1                    97.20           1      0.00     95.00     95.00     1.995      8.82    0.0    0.0
  XR-2                    91.96           1      0.00     95.00     95.00     1.887      7.99    0.0    0.0
  XR-3                     0.00           0      0.00      0.00      0.00     0.000      0.00    0.0    0.0
  XR-4                     0.00           0      0.00      0.00      0.00     0.000      0.00    0.0    0.0
  

  Analysis begun on:  Sat Aug 27 11:17:47 2022
  Analysis ended on:  Sat Aug 27 11:17:50 2022
  Total elapsed time: 00:00:03