
  OWA STORM WATER MANAGEMENT MODEL - VERSION v5.1.14 (OWA 2022-07-31)
  --------------------------------------------------------------

  WARNING 04: minimum elevation drop used for Conduit WS02004404WS02004405
  WARNING 03: negative offset ignored for Link YS02001904YS02001907
  
  *********************************************************
  NOTE: The summary statistics displayed in this report are
  based on results found at every computational time step,  
  not just on results from each reporting time step.
  *********************************************************
  
  ****************
  Analysis Options
  ****************
  Flow Units ............... LPS
  Process Models:
    Rainfall/Runoff ........ YES
    RDII ................... NO
    Snowmelt ............... NO
    Groundwater ............ NO
    Flow Routing ........... YES
    Ponding Allowed ........ NO
    Water Quality .......... NO
  Infiltration Method ...... HORTON
  Flow Routing Method ...... DYNWAVE
  Surcharge Method ......... EXTRAN
  Starting Date ............ 01/01/2000 00:00:00
  Ending Date .............. 01/01/2000 06:00:00
  Antecedent Dry Days ...... 8.0
  Report Time Step ......... 00:01:00
  Wet Time Step ............ 00:01:00
  Dry Time Step ............ 00:01:00
  Routing Time Step ........ 30.00 sec
  Variable Time Step ....... YES
  Maximum Trials ........... 8
  Number of Threads ........ 4
  Head Tolerance ........... 0.001500 m
  
  
  **************************        Volume         Depth
  Runoff Quantity Continuity     hectare-m            mm
  **************************     ---------       -------
  Total Precipitation ......         3.266        53.914
  Evaporation Loss .........         0.000         0.000
  Infiltration Loss ........         0.244         4.026
  Surface Runoff ...........         2.957        48.812
  Final Storage ............         0.066         1.084
  Continuity Error (%) .....        -0.015
  
  
  **************************        Volume        Volume
  Flow Routing Continuity        hectare-m      10^6 ltr
  **************************     ---------     ---------
  Dry Weather Inflow .......         0.472         4.722
  Wet Weather Inflow .......         2.957        29.571
  Groundwater Inflow .......         0.000         0.000
  RDII Inflow ..............         0.000         0.000
  External Inflow ..........         0.078         0.784
  External Outflow .........         2.384        23.836
  Flooding Loss ............         1.268        12.683
  Evaporation Loss .........         0.000         0.000
  Exfiltration Loss ........         0.000         0.000
  Initial Stored Volume ....         0.303         3.031
  Final Stored Volume ......         0.322         3.225
  Continuity Error (%) .....        -4.297
  
  
  *************************
  Highest Continuity Errors
  *************************
  Node JK-storage (-36.80%)
  Node YS02001884 (5.14%)
  Node YS02001583 (-3.42%)
  Node HS02004842 (1.71%)
  Node YS02001774 (1.44%)
  
  
  ***************************
  Time-Step Critical Elements
  ***************************
  Link WS02006252WS02006251 (46.84%)
  Link WS02006280WS02006229 (24.68%)
  Link YS02001793JiankangQianchi (6.54%)
  Link WS02004404WS02004405 (4.78%)
  Link YS02001791YS02001793 (2.49%)
  
  
  ********************************
  Highest Flow Instability Indexes
  ********************************
  Link WS02006113WS02006111 (30)
  Link WS02006111WS02006112 (20)
  Link WS02004404WS02004405 (18)
  Link WS02006238WS02006235 (16)
  Link WS02004403WS02004404 (15)
  
  
  *************************
  Routing Time Step Summary
  *************************
  Minimum Time Step           :     0.03 sec
  Average Time Step           :     1.63 sec
  Maximum Time Step           :    30.00 sec
  Percent in Steady State     :    -0.00
  Average Iterations per Step :     3.07
  Percent Not Converging      :     9.95
  
  
  ***************************
  Subcatchment Runoff Summary
  ***************************
  
  ------------------------------------------------------------------------------------------------------------------------------
                            Total      Total      Total      Total     Imperv       Perv      Total       Total     Peak  Runoff
                           Precip      Runon       Evap      Infil     Runoff     Runoff     Runoff      Runoff   Runoff   Coeff
  Subcatchment                 mm         mm         mm         mm         mm         mm         mm    10^6 ltr      LPS
  ------------------------------------------------------------------------------------------------------------------------------
  sub0                      53.91       0.00       0.00       1.00      48.87       2.78      51.65        0.04    23.72   0.958
  sub1                      53.91       0.00       0.00       1.72      46.67       4.21      50.88        0.34   179.17   0.944
  sub10                     53.91       0.00       0.00       1.21      48.26       3.11      51.37        0.57   301.79   0.953
  sub11                     53.91       0.00       0.00       1.19      48.30       3.13      51.42        0.60   326.29   0.954
  sub12                     53.91       0.00       0.00       1.93      45.71       5.08      50.79        0.44   251.74   0.942
  sub14                     53.91       0.00       0.00       1.36      47.76       3.50      51.25        0.49   263.87   0.951
  sub15                     53.91       0.00       0.00       5.39      36.73      10.79      47.52        0.82   429.94   0.881
  sub16                     53.91       0.00       0.00       5.56      35.19      12.24      47.43        0.50   277.61   0.880
  sub17                     53.91       0.00       0.00       5.42      35.72      11.84      47.55        0.41   226.53   0.882
  sub2                      53.91       0.00       0.00       7.67      33.00      12.28      45.27        0.42   197.78   0.840
  sub22                     53.91       0.00       0.00       8.17      29.93      15.02      44.94        2.84  1458.72   0.834
  sub23                     53.91       0.00       0.00       6.66      33.08      13.29      46.37        2.21  1182.26   0.860
  sub3                      53.91       0.00       0.00       8.04      32.92      11.65      44.57        1.00   434.21   0.827
  sub4                      53.91       0.00       0.00       1.94      46.35       4.00      50.34        1.05   474.29   0.934
  sub5                      53.91       0.00       0.00       1.05      48.77       2.72      51.49        0.58   307.38   0.955
  sub60                     53.91       0.00       0.00       1.82      46.20       4.65      50.85        0.67   369.10   0.943
  sub61                     53.91       0.00       0.00       2.65      43.59       6.52      50.10        0.92   512.94   0.929
  sub62                     53.91       0.00       0.00       1.21      48.25       3.10      51.35        1.41   744.25   0.952
  sub63                     53.91       0.00       0.00       4.93      37.28      10.71      47.99        1.09   597.78   0.890
  sub64                     53.91       0.00       0.00       2.49      44.54       5.60      50.14        1.20   624.04   0.930
  sub65                     53.91       0.00       0.00       2.15      45.56       4.86      50.41        1.39   704.01   0.935
  sub66                     53.91       0.00       0.00       6.10      37.07       9.54      46.61        2.17   971.34   0.865
  sub67                     53.91       0.00       0.00       1.16      48.33       3.15      51.48        0.96   536.31   0.955
  sub68                     53.91       0.00       0.00       2.20      45.13       5.35      50.48        1.39   755.29   0.936
  sub69                     53.91       0.00       0.00       1.98      45.62       6.10      51.72        1.91   937.86   0.959
  sub7                      53.91       0.00       0.00       1.33      47.78       3.52      51.30        0.17    95.48   0.952
  sub70                     53.91       0.00       0.00       6.56      35.27      11.77      47.04        1.36   550.89   0.872
  sub71                     53.91       0.00       0.00       1.25      48.17       3.06      51.23        1.34   677.32   0.950
  sub72                     53.91       0.00       0.00       1.12      48.58       2.66      51.23        0.70   336.72   0.950
  sub8                      53.91       0.00       0.00       1.35      47.77       3.50      51.27        0.33   178.28   0.951
  sub9                      53.91       0.00       0.00       1.35      47.76       3.50      51.26        0.25   133.72   0.951
  
  
  ******************
  Node Depth Summary
  ******************
  
  ---------------------------------------------------------------------------------
                                 Average  Maximum  Maximum  Time of Max    Reported
                                   Depth    Depth      HGL   Occurrence   Max Depth
  Node                 Type       Meters   Meters   Meters  days hr:min      Meters
  ---------------------------------------------------------------------------------
  HS02004478           JUNCTION     0.22     1.56    10.79     0  02:21        1.54
  HS02004479           JUNCTION     0.30     1.70    10.90     0  02:21        1.65
  HS02004480           JUNCTION     0.27     1.67    10.91     0  02:21        1.62
  HS02004770           JUNCTION     0.26     1.42    11.25     0  02:18        1.42
  HS02004777           JUNCTION     0.29     1.48    11.28     0  02:18        1.44
  HS02004785           JUNCTION     0.19     1.49    11.39     0  02:18        1.33
  HS02004788           JUNCTION     0.16     1.42    11.32     0  02:18        1.32
  HS02004792           JUNCTION     0.21     1.60    11.12     0  02:18        1.60
  HS02004799           JUNCTION     0.34     1.76    10.97     0  02:21        1.76
  HS02004802           JUNCTION     0.30     1.76    10.89     0  02:21        1.71
  HS02004807           JUNCTION     0.28     1.91    11.08     0  02:21        1.77
  HS02004817           JUNCTION     0.58     2.41    11.25     0  02:21        2.14
  HS02004824           JUNCTION     0.15     1.98    11.39     0  02:21        1.63
  HS02004830           JUNCTION     0.15     2.02    11.48     0  02:21        1.57
  HS02004837           JUNCTION     0.13     1.96    11.54     0  02:21        1.47
  HS02004842           JUNCTION     0.43     2.22    11.49     0  02:21        1.76
  HS02004848           JUNCTION     0.10     1.97    11.57     0  02:21        1.45
  HS02004852           JUNCTION     0.11     1.97    11.48     0  02:21        1.48
  HS02004856           JUNCTION     0.16     1.95    11.37     0  02:21        1.54
  HS02004862           JUNCTION     0.13     1.88    11.27     0  02:21        1.52
  HS02004870           JUNCTION     0.12     1.83    11.12     0  02:21        1.51
  HS02004876           JUNCTION     0.17     1.88    10.91     0  02:21        1.63
  HS02004881           JUNCTION     0.11     1.62    10.65     0  02:21        1.45
  HS02004901           JUNCTION     0.27     1.42    11.24     0  02:18        1.42
  WS02001211           JUNCTION     0.65     0.80     5.64     0  02:32        0.80
  WS02001212           JUNCTION     0.39     0.57     5.63     0  02:32        0.57
  WS02001213           JUNCTION     0.62     0.86     5.62     0  02:32        0.86
  WS02003059           JUNCTION     0.68     0.93     5.62     0  02:31        0.93
  WS02003060           JUNCTION     0.40     0.68     5.61     0  02:31        0.68
  WS02003066           JUNCTION     0.24     0.45     6.00     0  02:30        0.45
  WS02003067           JUNCTION     0.57     0.88     6.20     0  02:30        0.88
  WS02003069           JUNCTION     0.45     0.77     5.36     0  02:31        0.77
  WS02003072           JUNCTION     0.51     0.81     5.18     0  02:32        0.81
  WS02003073           JUNCTION     0.31     0.51     4.58     0  02:32        0.51
  WS02004138           JUNCTION     0.14     0.14     7.39     0  00:29        0.14
  WS02004139           JUNCTION     0.59     0.74     5.65     0  02:33        0.74
  WS02004401           JUNCTION     0.82     1.80     7.80     0  02:29        1.79
  WS02004402           JUNCTION     0.84     1.75     7.71     0  02:29        1.73
  WS02004403           JUNCTION     0.84     1.67     7.60     0  02:29        1.67
  WS02004404           JUNCTION     0.91     1.68     7.53     0  02:29        1.67
  WS02004405           JUNCTION     0.89     1.63     7.48     0  02:29        1.63
  WS02004406           JUNCTION     0.88     1.53     7.36     0  02:30        1.53
  WS02004407           JUNCTION     0.28     0.88     7.20     0  02:30        0.88
  WS02004409           JUNCTION     0.57     1.36     7.13     0  02:30        1.36
  WS02004410           JUNCTION     0.58     1.27     6.99     0  02:29        1.26
  WS02004411           JUNCTION     0.58     1.19     6.87     0  02:29        1.18
  WS02004412           JUNCTION     0.58     1.09     6.73     0  02:30        1.09
  WS02004413           JUNCTION     0.73     1.14     6.61     0  02:30        1.14
  WS02006109           JUNCTION     1.04     2.64     9.26     0  02:18        2.64
  WS02006110           JUNCTION     0.97     2.37     8.95     0  02:29        2.36
  WS02006111           JUNCTION     0.44     1.67     8.38     0  02:29        1.66
  WS02006112           JUNCTION     1.04     2.68     8.56     0  00:00        2.29
  WS02006113           JUNCTION     0.53     1.78     8.67     0  02:29        1.77
  WS02006115           JUNCTION     0.74     1.88     8.02     0  02:29        1.88
  WS02006116           JUNCTION     0.81     1.88     7.92     0  02:29        1.87
  WS02006228           JUNCTION     1.10     3.03     9.68     0  02:21        3.01
  WS02006229           JUNCTION     1.11     3.23     9.92     0  02:21        3.20
  WS02006230           JUNCTION     1.05     2.65     9.39     0  02:13        2.65
  WS02006231           JUNCTION     0.77     2.19     9.31     0  02:22        2.19
  WS02006232           JUNCTION     0.87     2.18     9.22     0  02:13        2.18
  WS02006234           JUNCTION     0.76     1.96     9.12     0  02:10        1.96
  WS02006235           JUNCTION     0.77     1.97     9.13     0  02:20        1.92
  WS02006238           JUNCTION     0.80     1.98     9.13     0  02:20        1.93
  WS02006239           JUNCTION     0.75     1.84     9.04     0  02:20        1.78
  WS02006240           JUNCTION     0.70     1.66     8.95     0  02:20        1.62
  WS02006242           JUNCTION     0.74     1.55     8.82     0  01:50        1.55
  WS02006243           JUNCTION     0.63     1.38     8.80     0  01:50        1.36
  WS02006245           JUNCTION     0.62     1.28     8.76     0  01:50        1.27
  WS02006247           JUNCTION     0.63     1.23     8.73     0  02:00        1.22
  WS02006248           JUNCTION     0.57     1.10     8.69     0  01:50        1.10
  WS02006249           JUNCTION     0.60     1.09     8.69     0  01:47        1.09
  WS02006251           JUNCTION     0.69     2.14     9.81     0  02:21        2.09
  WS02006252           JUNCTION     0.49     1.50     9.74     0  02:10        1.50
  WS02006253           JUNCTION     0.76     2.86    10.50     0  02:21        2.74
  WS02006256           JUNCTION     1.04     2.35     9.28     0  00:46        2.35
  WS02006280           JUNCTION     0.29     1.75    10.02     0  02:21        1.71
  WS02006284           JUNCTION     0.55     1.94    10.34     0  02:21        1.91
  WS02006287           JUNCTION     0.28     1.72    10.68     0  02:21        1.69
  WSF200               JUNCTION     0.24     0.51     5.75     0  02:30        0.51
  YS02001580           JUNCTION     0.08     1.05     9.59     0  02:16        0.77
  YS02001583           JUNCTION     0.10     1.14     9.64     0  02:16        0.82
  YS02001586           JUNCTION     0.19     1.13     9.30     0  02:16        1.13
  YS02001590           JUNCTION     0.29     1.40     9.26     0  02:16        1.37
  YS02001593           JUNCTION     0.22     1.30     9.17     0  02:16        1.28
  YS02001596           JUNCTION     0.30     1.68     9.09     0  02:16        1.65
  YS02001600           JUNCTION     0.37     1.87     9.00     0  02:16        1.86
  YS02001601           JUNCTION     0.56     2.06     8.90     0  02:15        2.06
  YS02001602           JUNCTION     0.48     1.87     8.77     0  02:18        1.87
  YS02001605           JUNCTION     0.44     1.78     8.68     0  02:25        1.77
  YS02001607           JUNCTION     0.42     1.65     8.49     0  02:25        1.64
  YS02001610           JUNCTION     0.46     1.68     8.48     0  02:19        1.68
  YS02001613           JUNCTION     0.42     1.65     8.49     0  02:28        1.65
  YS02001616           JUNCTION     0.36     1.59     8.50     0  02:29        1.58
  YS02001619           JUNCTION     0.34     1.57     8.50     0  02:28        1.56
  YS02001622           JUNCTION     0.33     1.55     8.46     0  02:28        1.55
  YS02001625           JUNCTION     0.53     1.78     8.38     0  02:19        1.78
  YS02001629           JUNCTION     0.44     1.85     8.40     0  02:20        1.84
  YS02001633           JUNCTION     0.51     1.98     8.43     0  02:22        1.96
  YS02001641           JUNCTION     0.49     1.94     8.38     0  02:23        1.93
  YS02001644           JUNCTION     0.48     1.92     8.35     0  02:23        1.92
  YS02001647           JUNCTION     0.29     1.74     8.35     0  02:29        1.72
  YS02001649           JUNCTION     0.35     1.94     8.33     0  02:29        1.93
  YS02001652           JUNCTION     0.25     1.77     8.37     0  02:29        1.74
  YS02001655           JUNCTION     0.19     1.55     8.40     0  02:29        1.52
  YS02001658           JUNCTION     0.13     1.32     8.46     0  02:22        1.26
  YS02001661           JUNCTION     0.15     1.05     8.45     0  02:29        1.03
  YS02001664           JUNCTION     0.06     0.47     8.40     0  02:30        0.42
  YS02001745           JUNCTION     0.07     0.74     8.26     0  02:30        0.73
  YS02001748           JUNCTION     0.13     1.25     8.32     0  02:25        1.17
  YS02001751           JUNCTION     0.16     1.52     8.40     0  02:21        1.42
  YS02001754           JUNCTION     0.22     1.65     8.26     0  02:29        1.64
  YS02001757           JUNCTION     0.37     1.99     8.25     0  02:29        1.98
  YS02001759           JUNCTION     0.32     1.94     8.31     0  02:29        1.94
  YS02001762           JUNCTION     0.31     1.93     8.33     0  02:29        1.92
  YS02001765           JUNCTION     0.29     1.89     8.34     0  02:29        1.88
  YS02001767           JUNCTION     0.29     1.87     8.36     0  02:30        1.87
  YS02001770           JUNCTION     0.30     1.89     8.39     0  02:29        1.89
  YS02001774           JUNCTION     0.35     1.96     8.38     0  02:28        1.95
  YS02001779           JUNCTION     0.19     1.68     8.37     0  02:19        1.68
  YS02001783           JUNCTION     0.23     1.79     7.93     0  02:25        1.48
  YS02001784           JUNCTION     0.25     1.78     7.85     0  02:25        1.43
  YS02001786           JUNCTION     0.21     1.64     7.67     0  02:25        1.26
  YS02001788           JUNCTION     0.16     1.56     7.54     0  02:25        1.13
  YS02001790           JUNCTION     0.19     1.71     7.36     0  02:25        1.29
  YS02001791           JUNCTION     0.13     1.55     7.02     0  02:45        1.27
  YS02001793           JUNCTION     0.12     1.90     6.73     0  02:25        1.80
  YS02001882           JUNCTION     0.28     1.63     8.34     0  02:22        1.62
  YS02001884           JUNCTION     0.36     1.73     8.34     0  02:27        1.72
  YS02001887           JUNCTION     0.43     1.80     8.34     0  02:29        1.80
  YS02001890           JUNCTION     0.47     1.81     8.32     0  02:22        1.81
  YS02001895           JUNCTION     0.26     1.57     8.31     0  02:27        1.56
  YS02001898           JUNCTION     0.26     1.56     8.30     0  02:22        1.56
  YS02001901           JUNCTION     0.34     1.68     8.29     0  02:22        1.67
  YS02001904           JUNCTION     0.33     1.64     8.27     0  02:22        1.63
  YS02001907           JUNCTION     0.63     1.96     8.25     0  02:22        1.96
  YS02001910           JUNCTION     0.43     1.97     8.48     0  02:23        1.90
  YS02001915           JUNCTION     0.29     1.92     8.64     0  02:23        1.82
  YS02001918           JUNCTION     0.15     1.81     8.88     0  02:23        1.70
  YS02001920           JUNCTION     0.23     2.04     9.05     0  02:23        1.94
  YS02001923           JUNCTION     0.11     1.91     9.17     0  02:23        1.85
  YS02001926           JUNCTION     0.15     1.81     9.25     0  02:23        1.78
  YS02001929           JUNCTION     0.08     1.78     9.47     0  02:22        1.60
  YS02006553           JUNCTION     0.63     2.05     8.33     0  02:25        1.97
  YS02006556           JUNCTION     0.60     2.12     8.43     0  02:25        1.94
  YS02006558           JUNCTION     0.65     2.20     8.47     0  02:25        1.98
  YS02006561           JUNCTION     0.14     1.36     8.02     0  02:25        1.09
  YS02163301           JUNCTION     0.46     1.90     8.42     0  02:23        1.89
  YS02163601           JUNCTION     0.54     2.01     8.41     0  02:22        1.99
  YS02164001           JUNCTION     0.48     1.94     8.40     0  02:23        1.92
  YSB1154              JUNCTION     0.42     1.91    10.97     0  02:18        1.86
  YSB1171              JUNCTION     0.58     1.95    10.85     0  02:18        1.95
  YSB1174              JUNCTION     0.38     1.79    10.90     0  02:18        1.77
  YSB6556              JUNCTION     0.33     1.77    10.94     0  02:18        1.71
  CC-1                 OUTFALL      0.00     0.00     0.00     0  00:00        0.00
  CC-2                 OUTFALL      0.00     0.00     0.00     0  00:00        0.00
  JK-1                 OUTFALL      0.00     0.00     0.00     0  00:00        0.00
  JK-2                 OUTFALL      0.00     0.00     0.00     0  00:00        0.00
  WSC                  OUTFALL      0.31     0.51     1.18     0  02:33        0.51
  CC-storage           STORAGE      0.86     1.82     7.32     0  02:46        1.82
  JK-storage           STORAGE      2.50     5.80     6.60     0  02:25        5.80
  XR-storage           STORAGE      7.56     8.66     6.66     0  06:00        8.66
  
  
  *******************
  Node Inflow Summary
  *******************
  
  -------------------------------------------------------------------------------------------------
                                  Maximum  Maximum                  Lateral       Total        Flow
                                  Lateral    Total  Time of Max      Inflow      Inflow     Balance
                                   Inflow   Inflow   Occurrence      Volume      Volume       Error
  Node                 Type           LPS      LPS  days hr:min    10^6 ltr    10^6 ltr     Percent
  -------------------------------------------------------------------------------------------------
  HS02004478           JUNCTION      0.00  2273.27     0  02:29           0        8.11      -0.006
  HS02004479           JUNCTION      0.00   395.04     0  02:22           0       0.829       0.108
  HS02004480           JUNCTION      0.00  2060.75     0  02:21           0        6.24       0.037
  HS02004770           JUNCTION   1182.26  1182.26     0  02:30        2.21        2.46       0.132
  HS02004777           JUNCTION      0.03   698.01     0  02:17    0.000648        1.88       0.280
  HS02004785           JUNCTION      0.15   711.56     0  02:17     0.00324        1.88       0.025
  HS02004788           JUNCTION    431.61   861.79     0  02:18       0.853        2.73       0.002
  HS02004792           JUNCTION   1459.00  2204.76     0  02:30        2.85        5.57       0.012
  HS02004799           JUNCTION    263.87  1712.47     0  02:20       0.488        5.44       0.053
  HS02004802           JUNCTION      0.00   943.45     0  02:30           0        1.91       0.213
  HS02004807           JUNCTION    326.29   942.50     0  02:30       0.598        1.95       0.225
  HS02004817           JUNCTION      0.60   617.59     0  02:30       0.013        1.41       1.240
  HS02004824           JUNCTION    474.34   616.47     0  02:30        1.05        1.59       0.038
  HS02004830           JUNCTION      0.15   552.98     0  02:18     0.00324       0.738       0.165
  HS02004837           JUNCTION    308.14   742.08     0  02:21       0.704         1.1       0.081
  HS02004842           JUNCTION      0.00   745.99     0  02:21           0       0.764       1.739
  HS02004848           JUNCTION    434.21   988.31     0  02:21           1        1.61       0.007
  HS02004852           JUNCTION      0.00   972.69     0  02:21           0        1.46       0.026
  HS02004856           JUNCTION    133.72   993.29     0  02:20       0.247        1.71       0.116
  HS02004862           JUNCTION    197.98  1058.82     0  02:20       0.426        2.13       0.025
  HS02004870           JUNCTION    178.28  1110.48     0  02:30       0.328        2.46       0.025
  HS02004876           JUNCTION    179.17  1289.50     0  02:30       0.338         2.8       0.042
  HS02004881           JUNCTION     95.48  1385.50     0  02:30       0.173        2.97       0.002
  HS02004901           JUNCTION    277.61   542.47     0  02:30       0.497        0.76       0.250
  WS02001211           JUNCTION      7.35   206.07     0  03:05       0.159        4.02       0.828
  WS02001212           JUNCTION      0.00   214.11     0  03:05           0        3.98       0.395
  WS02001213           JUNCTION      0.00   218.05     0  03:04           0        3.97       0.453
  WS02003059           JUNCTION      0.00   224.15     0  03:04           0        3.96       0.813
  WS02003060           JUNCTION     16.53  1484.87     0  02:30       0.357        12.9       0.115
  WS02003066           JUNCTION      0.00  1275.77     0  02:30           0        8.62       0.018
  WS02003067           JUNCTION      0.00  1276.40     0  02:30           0        8.62       0.052
  WS02003069           JUNCTION      0.32  1484.84     0  02:31     0.00691        12.9       0.121
  WS02003072           JUNCTION      0.00  1484.48     0  02:31           0        12.9       0.163
  WS02003073           JUNCTION      1.82  1486.16     0  02:32      0.0393        12.9       0.171
  WS02004138           JUNCTION      0.00   190.00     0  00:29           0        3.88       0.084
  WS02004139           JUNCTION      0.32   191.33     0  00:29     0.00693        3.89       0.688
  WS02004401           JUNCTION      0.00  1276.66     0  02:30           0        8.74       0.137
  WS02004402           JUNCTION      0.00  1277.19     0  02:30           0        8.73       0.132
  WS02004403           JUNCTION      0.00  1277.35     0  02:30           0        8.72       0.129
  WS02004404           JUNCTION      0.16  1277.02     0  02:29      0.0035        8.71       0.105
  WS02004405           JUNCTION      0.04  1277.67     0  02:29    0.000823         8.7       0.149
  WS02004406           JUNCTION      0.00  1277.19     0  02:30           0        8.69       0.257
  WS02004407           JUNCTION      0.00  1276.60     0  02:30           0        8.66       0.019
  WS02004409           JUNCTION      0.00  1275.80     0  02:30           0        8.66       0.040
  WS02004410           JUNCTION      0.00  1275.97     0  02:30           0        8.66       0.059
  WS02004411           JUNCTION      0.00  1275.96     0  02:30           0        8.65       0.071
  WS02004412           JUNCTION      0.00  1276.54     0  02:30           0        8.65       0.095
  WS02004413           JUNCTION      0.00  1277.07     0  02:30           0        8.64       0.167
  WS02006109           JUNCTION      1.23  1308.01     0  00:00      0.0266        8.49       0.146
  WS02006110           JUNCTION      0.00  1123.71     0  02:40           0        8.29      -0.419
  WS02006111           JUNCTION      0.00  1176.04     0  00:00           0        8.32      -0.457
  WS02006112           JUNCTION    226.53  2307.30     0  00:00       0.408        8.76       0.007
  WS02006113           JUNCTION      0.00  1123.90     0  02:40           0        8.28      -0.537
  WS02006115           JUNCTION      0.00  2152.75     0  00:00           0        8.74       0.056
  WS02006116           JUNCTION      0.00  1276.72     0  02:30           0        8.74       0.029
  WS02006228           JUNCTION      0.00  1272.71     0  02:30           0        8.45       0.081
  WS02006229           JUNCTION      0.00  2273.80     0  02:29           0        10.5       0.068
  WS02006230           JUNCTION     10.28  1010.11     0  02:30       0.222        4.46       0.081
  WS02006231           JUNCTION      0.00   481.68     0  03:20           0        3.46      -0.041
  WS02006232           JUNCTION      0.00   480.00     0  03:20           0        3.47       0.138
  WS02006234           JUNCTION      0.00   475.84     0  03:20           0        3.46      -0.039
  WS02006235           JUNCTION      0.00   472.73     0  03:20           0        3.43       0.061
  WS02006238           JUNCTION      0.00   419.03     0  03:45           0        3.28      -0.047
  WS02006239           JUNCTION      0.00   418.99     0  03:45           0        3.28      -0.038
  WS02006240           JUNCTION      0.00   418.92     0  03:45           0        3.28       0.002
  WS02006242           JUNCTION      0.00   418.89     0  03:45           0        3.28       0.057
  WS02006243           JUNCTION      0.00   418.85     0  03:45           0        2.93      -0.025
  WS02006245           JUNCTION      0.00   418.80     0  03:45           0        2.93       0.101
  WS02006247           JUNCTION      0.00   418.74     0  03:45           0        2.93       0.019
  WS02006248           JUNCTION      0.00   418.66     0  03:45           0        3.18       0.024
  WS02006249           JUNCTION      0.00  1334.13     0  02:21           0        6.15       0.036
  WS02006251           JUNCTION      0.08  1408.83     0  02:30     0.00166        6.17      -0.023
  WS02006252           JUNCTION      0.00   479.22     0  02:30           0         3.5      -0.025
  WS02006253           JUNCTION     23.72  1409.82     0  02:30      0.0418        3.02       0.020
  WS02006256           JUNCTION      0.00   300.00     0  01:50           0         0.8       0.107
  WS02006280           JUNCTION      0.00  2272.68     0  02:30           0         8.1      -0.002
  WS02006284           JUNCTION      0.10  2271.87     0  02:29     0.00207         8.1       0.013
  WS02006287           JUNCTION      0.00  2273.11     0  02:30           0         8.1       0.013
  WSF200               JUNCTION      0.00  1275.85     0  02:30           0        8.62       0.010
  YS02001580           JUNCTION      0.00    78.58     0  02:16           0      0.0041       0.555
  YS02001583           JUNCTION      0.00   110.13     0  02:15           0      0.0155      -3.305
  YS02001586           JUNCTION    550.89   550.92     0  02:30        1.36        1.37       0.077
  YS02001590           JUNCTION      0.00   318.00     0  02:29           0        1.21      -0.009
  YS02001593           JUNCTION      0.00   318.03     0  02:29           0        1.21       0.000
  YS02001596           JUNCTION      0.00   318.01     0  02:42           0        1.21      -0.009
  YS02001600           JUNCTION      0.00   318.10     0  02:29           0        1.21       0.028
  YS02001601           JUNCTION    937.86  1255.39     0  02:30        1.91        3.13       0.041
  YS02001602           JUNCTION      0.00   491.85     0  02:15           0        2.19       0.039
  YS02001605           JUNCTION      0.00   491.71     0  02:15           0        2.09       0.052
  YS02001607           JUNCTION      0.00   491.91     0  02:15           0        2.09       0.121
  YS02001610           JUNCTION      0.00   490.15     0  02:15           0        2.11       0.136
  YS02001613           JUNCTION      0.00   492.33     0  02:15           0        1.79       0.116
  YS02001616           JUNCTION      0.00   495.66     0  02:15           0        1.79       0.036
  YS02001619           JUNCTION    971.34   971.34     0  02:30        2.17        3.93       0.001
  YS02001622           JUNCTION      0.00   895.52     0  02:18           0         3.9       0.012
  YS02001625           JUNCTION      0.00  1099.41     0  02:30           0        3.99       0.290
  YS02001629           JUNCTION      0.00   895.28     0  02:18           0        3.18       0.011
  YS02001633           JUNCTION    704.21  1243.43     0  02:18        1.39        4.49       0.091
  YS02001641           JUNCTION      0.00  1242.82     0  02:18           0        4.41       0.073
  YS02001644           JUNCTION    624.08  1561.71     0  02:19        1.21        5.61       0.071
  YS02001647           JUNCTION      0.00  1562.35     0  02:19           0        5.49       0.009
  YS02001649           JUNCTION      0.00  1729.70     0  02:20           0        6.59       0.006
  YS02001652           JUNCTION      0.00   617.65     0  02:30           0        1.09      -0.084
  YS02001655           JUNCTION      0.15   615.94     0  02:30     0.00332        1.09       0.034
  YS02001658           JUNCTION      0.00   613.51     0  02:30           0        1.09      -0.029
  YS02001661           JUNCTION      0.00   794.12     0  02:29           0        1.09      -0.018
  YS02001664           JUNCTION    597.78   597.78     0  02:30        1.09        1.09      -0.002
  YS02001745           JUNCTION    369.10   369.10     0  02:30       0.668       0.668       0.174
  YS02001748           JUNCTION      0.04   484.84     0  02:24    0.000972       0.669      -0.386
  YS02001751           JUNCTION      0.01   381.69     0  02:30    0.000238       0.675       0.143
  YS02001754           JUNCTION      0.26   381.84     0  02:30     0.00562       0.687      -0.172
  YS02001757           JUNCTION      0.00  2839.09     0  02:26           0         9.6       0.028
  YS02001759           JUNCTION    512.98  1140.35     0  02:27        0.92        2.32      -0.007
  YS02001762           JUNCTION      0.00   662.49     0  02:27           0         1.4       0.012
  YS02001765           JUNCTION      0.00   662.22     0  02:27           0         1.4       0.008
  YS02001767           JUNCTION      0.54   662.57     0  02:27      0.0116         1.4       0.015
  YS02001770           JUNCTION    744.41   744.41     0  02:30        1.41        1.45      -0.003
  YS02001774           JUNCTION      0.00   198.89     0  02:19           0      0.0827       1.461
  YS02001779           JUNCTION      0.01   200.92     0  02:19    0.000108       0.039      -0.549
  YS02001783           JUNCTION      0.00  1153.00     0  02:25           0        3.75       0.003
  YS02001784           JUNCTION      1.06  1155.09     0  02:25      0.0229        3.77       0.022
  YS02001786           JUNCTION      0.06  1154.69     0  02:25     0.00122        3.77       0.012
  YS02001788           JUNCTION      0.07  1157.59     0  02:25     0.00153        3.77       0.004
  YS02001790           JUNCTION      0.15  1201.87     0  02:31     0.00335        3.77      -0.008
  YS02001791           JUNCTION      0.00  1355.60     0  02:31           0        3.78      -0.002
  YS02001793           JUNCTION      0.00  1409.89     0  02:31           0        3.78      -0.027
  YS02001882           JUNCTION      0.00    32.42     0  02:19           0       0.013       5.811
  YS02001884           JUNCTION      0.00    36.28     0  02:19           0      0.0493       5.420
  YS02001887           JUNCTION    536.76   536.76     0  02:30       0.967           1       0.463
  YS02001890           JUNCTION      0.00   537.79     0  02:30           0        0.96       0.550
  YS02001895           JUNCTION      0.00   515.17     0  02:30           0       0.952       0.173
  YS02001898           JUNCTION      0.00   515.37     0  02:30           0        0.95       0.048
  YS02001901           JUNCTION      0.00   515.60     0  02:30           0       0.952       0.351
  YS02001904           JUNCTION      0.00   515.65     0  02:30           0       0.956       0.313
  YS02001907           JUNCTION      0.00  1519.59     0  02:30           0        3.05       0.603
  YS02001910           JUNCTION      0.00  1003.57     0  02:30           0        2.11       0.351
  YS02001915           JUNCTION    677.34  1004.23     0  02:30        1.34        2.13       0.084
  YS02001918           JUNCTION      0.00   449.61     0  02:23           0       0.809       0.026
  YS02001920           JUNCTION      2.87   448.64     0  02:23       0.062       0.798       0.116
  YS02001923           JUNCTION      0.04   410.88     0  02:23    0.000814       0.725      -0.008
  YS02001926           JUNCTION      0.05   407.84     0  02:23     0.00113       0.711       0.063
  YS02001929           JUNCTION    336.72   336.72     0  02:30       0.704       0.705      -0.112
  YS02006553           JUNCTION      0.00   792.48     0  02:39           0        2.39       0.510
  YS02006556           JUNCTION      0.00   792.61     0  02:39           0        2.39       0.337
  YS02006558           JUNCTION    756.17  1152.95     0  02:25        1.41        3.78       0.099
  YS02006561           JUNCTION      0.00  1153.17     0  02:25           0        3.75      -0.001
  YS02163301           JUNCTION      0.00   895.12     0  02:18           0        3.19       0.059
  YS02163601           JUNCTION      0.11  1243.42     0  02:18     0.00238        4.41       0.124
  YS02164001           JUNCTION      0.00  1243.49     0  02:18           0         4.4       0.058
  YSB1154              JUNCTION    307.38   307.38     0  02:30       0.583       0.584       0.261
  YSB1171              JUNCTION      0.00   559.47     0  02:30           0        1.03       0.641
  YSB1174              JUNCTION    251.74   251.74     0  02:30       0.444       0.444       0.290
  YSB6556              JUNCTION      0.00   307.54     0  02:30           0       0.585       0.207
  CC-1                 OUTFALL       0.00   683.00     0  02:20           0         3.7       0.000
  CC-2                 OUTFALL       0.00   683.00     0  02:30           0        3.28       0.000
  JK-1                 OUTFALL       0.00  1000.00     0  01:50           0           2       0.000
  JK-2                 OUTFALL       0.00  1000.00     0  01:50           0           2       0.000
  WSC                  OUTFALL       0.00  1485.94     0  02:33           0        12.9       0.000
  CC-storage           STORAGE       0.00  2838.48     0  02:26           0        11.8      -0.229
  JK-storage           STORAGE       0.00  1697.05     0  02:31           0        3.93     -26.902
  XR-storage           STORAGE     200.00   200.00     0  00:00        4.32        4.92       0.001
  
  
  **********************
  Node Surcharge Summary
  **********************
  
  Surcharging occurs when water rises above the top of the highest conduit.
  ---------------------------------------------------------------------
                                               Max. Height   Min. Depth
                                   Hours       Above Crown    Below Rim
  Node                 Type      Surcharged         Meters       Meters
  ---------------------------------------------------------------------
  HS02004478           JUNCTION        0.41          0.644        0.296
  HS02004479           JUNCTION        0.54          0.900        0.150
  HS02004480           JUNCTION        0.58          0.963        0.137
  HS02004770           JUNCTION        0.48          0.720        0.000
  HS02004777           JUNCTION        0.49          0.780        0.000
  HS02004785           JUNCTION        0.44          0.790        0.000
  HS02004788           JUNCTION        0.42          0.720        0.000
  HS02004792           JUNCTION        0.54          0.900        0.000
  HS02004799           JUNCTION        0.68          1.060        0.000
  HS02004802           JUNCTION        0.60          1.047        0.163
  HS02004807           JUNCTION        0.57          1.213        0.007
  HS02004817           JUNCTION        1.17          1.706        0.034
  HS02004824           JUNCTION        0.43          1.283        0.027
  HS02004830           JUNCTION        0.40          1.315        0.015
  HS02004837           JUNCTION        0.36          1.264        0.076
  HS02004842           JUNCTION        0.50          1.520        0.000
  HS02004848           JUNCTION        0.33          1.268        0.102
  HS02004852           JUNCTION        0.35          1.271        0.149
  HS02004856           JUNCTION        0.34          1.176        0.124
  HS02004862           JUNCTION        0.38          1.183        0.117
  HS02004870           JUNCTION        0.39          1.132        0.268
  HS02004876           JUNCTION        0.47          1.184        0.376
  HS02004881           JUNCTION        0.45          0.921        0.529
  HS02004901           JUNCTION        0.48          0.720        0.000
  WS02004401           JUNCTION        1.62          0.795        0.865
  WS02004402           JUNCTION        1.69          0.746        0.994
  WS02004403           JUNCTION        1.71          0.671        1.359
  WS02004404           JUNCTION        1.88          0.679        2.101
  WS02004405           JUNCTION        1.85          0.634        2.166
  WS02004406           JUNCTION        1.83          0.531        1.919
  WS02004409           JUNCTION        1.00          0.356        2.004
  WS02004410           JUNCTION        0.92          0.273        2.267
  WS02004411           JUNCTION        0.81          0.186        2.344
  WS02004412           JUNCTION        0.71          0.093        2.217
  WS02004413           JUNCTION        1.29          0.139        2.061
  WS02006109           JUNCTION        2.41          1.820        0.000
  WS02006110           JUNCTION        2.20          1.459        0.391
  WS02006111           JUNCTION        1.24          0.864        1.006
  WS02006112           JUNCTION        2.29          1.680        0.000
  WS02006113           JUNCTION        1.26          0.980        0.950
  WS02006115           JUNCTION        1.47          0.870        1.380
  WS02006116           JUNCTION        1.49          0.818        1.472
  WS02006228           JUNCTION        2.41          2.200        0.000
  WS02006229           JUNCTION        0.85          1.046        0.024
  WS02006230           JUNCTION        1.90          1.570        0.000
  WS02006231           JUNCTION        2.17          1.479        0.051
  WS02006232           JUNCTION        2.29          1.480        0.000
  WS02006234           JUNCTION        2.20          1.240        0.000
  WS02006235           JUNCTION        2.22          1.258        0.032
  WS02006238           JUNCTION        2.23          1.261        0.169
  WS02006239           JUNCTION        2.20          1.095        0.195
  WS02006240           JUNCTION        2.18          0.948        0.442
  WS02006242           JUNCTION        2.20          0.820        0.000
  WS02006243           JUNCTION        2.15          0.667        0.103
  WS02006245           JUNCTION        2.13          0.566        0.284
  WS02006247           JUNCTION        2.13          0.524        0.236
  WS02006248           JUNCTION        2.11          0.380        0.000
  WS02006249           JUNCTION        2.11          0.390        0.000
  WS02006251           JUNCTION        2.05          1.107        0.073
  WS02006252           JUNCTION        2.07          1.100        0.000
  WS02006253           JUNCTION        2.05          1.815        0.665
  WS02006256           JUNCTION        4.65          2.050        0.000
  WS02006280           JUNCTION        0.70          0.695        0.085
  WS02006284           JUNCTION        0.62          0.660        0.140
  WS02006287           JUNCTION        0.51          0.724        0.166
  YS02001580           JUNCTION        0.50          0.450        0.000
  YS02001583           JUNCTION        0.51          0.500        0.000
  YS02001586           JUNCTION        0.66          0.510        0.000
  YS02001590           JUNCTION        0.74          0.749        0.001
  YS02001593           JUNCTION        0.74          0.683        0.157
  YS02001596           JUNCTION        0.87          0.946        0.124
  YS02001600           JUNCTION        1.03          1.190        0.000
  YS02001601           JUNCTION        1.39          1.440        0.000
  YS02001602           JUNCTION        1.27          1.270        0.000
  YS02001605           JUNCTION        1.21          1.175        0.005
  YS02001607           JUNCTION        0.74          0.646        0.034
  YS02001610           JUNCTION        0.77          0.680        0.000
  YS02001613           JUNCTION        0.73          0.652        0.048
  YS02001616           JUNCTION        0.69          0.586        0.024
  YS02001619           JUNCTION        0.68          0.567        0.043
  YS02001622           JUNCTION        0.68          0.553        0.067
  YS02001625           JUNCTION        0.86          0.780        0.000
  YS02001629           JUNCTION        0.63          0.470        0.000
  YS02001633           JUNCTION        0.90          0.961        0.099
  YS02001641           JUNCTION        0.84          0.945        0.155
  YS02001644           JUNCTION        0.81          0.920        0.000
  YS02001647           JUNCTION        0.61          0.737        0.163
  YS02001649           JUNCTION        0.74          0.942        0.108
  YS02001652           JUNCTION        0.55          0.740        0.390
  YS02001655           JUNCTION        0.41          0.548        0.652
  YS02001658           JUNCTION        0.22          0.315        0.985
  YS02001748           JUNCTION        0.12          0.168        1.022
  YS02001751           JUNCTION        0.31          0.516        0.684
  YS02001754           JUNCTION        0.49          0.602        0.548
  YS02001757           JUNCTION        0.80          0.987        0.223
  YS02001759           JUNCTION        0.72          0.942        0.268
  YS02001762           JUNCTION        0.70          0.925        0.225
  YS02001765           JUNCTION        0.65          0.891        0.209
  YS02001767           JUNCTION        0.62          0.871        0.159
  YS02001770           JUNCTION        0.59          0.861        0.059
  YS02001774           JUNCTION        0.68          0.961        0.089
  YS02001779           JUNCTION        0.47          0.680        0.000
  YS02001783           JUNCTION        0.54          0.993        0.607
  YS02001784           JUNCTION        0.52          0.983        0.507
  YS02001786           JUNCTION        0.39          0.835        0.595
  YS02001788           JUNCTION        0.15          0.760        0.720
  YS02001790           JUNCTION        0.17          0.913        0.244
  YS02001791           JUNCTION        0.17          0.751        1.169
  YS02001793           JUNCTION        0.22          0.901        1.699
  YS02001882           JUNCTION        0.41          0.628        0.202
  YS02001884           JUNCTION        0.42          0.667        0.203
  YS02001887           JUNCTION        0.46          0.755        0.195
  YS02001890           JUNCTION        0.47          0.760        0.000
  YS02001895           JUNCTION        0.40          0.567        0.183
  YS02001898           JUNCTION        0.39          0.532        0.208
  YS02001901           JUNCTION        0.44          0.677        0.193
  YS02001904           JUNCTION        0.43          0.640        0.210
  YS02001907           JUNCTION        0.75          0.950        0.000
  YS02001910           JUNCTION        0.51          0.970        0.130
  YS02001915           JUNCTION        0.40          0.923        0.077
  YS02001918           JUNCTION        0.32          0.810        0.000
  YS02001920           JUNCTION        0.33          1.044        0.096
  YS02001923           JUNCTION        0.01          0.705        0.115
  YS02001926           JUNCTION        0.01          0.805        0.095
  YS02001929           JUNCTION        0.01          0.780        0.000
  YS02006553           JUNCTION        0.77          1.046        0.144
  YS02006556           JUNCTION        0.62          1.080        0.270
  YS02006558           JUNCTION        0.61          1.100        0.300
  YS02006561           JUNCTION        0.28          0.561        0.589
  YS02163301           JUNCTION        0.87          0.902        0.128
  YS02163601           JUNCTION        0.93          1.015        0.065
  YS02164001           JUNCTION        0.84          0.939        0.161
  YSB1154              JUNCTION        0.81          1.208        0.192
  YSB1171              JUNCTION        0.81          1.100        0.000
  YSB1174              JUNCTION        0.73          1.088        0.162
  YSB6556              JUNCTION        0.66          1.067        0.033
  
  
  *********************
  Node Flooding Summary
  *********************
  
  Flooding refers to all water that overflows a node, whether it ponds or not.
  --------------------------------------------------------------------------
                                                             Total   Maximum
                                 Maximum   Time of Max       Flood    Ponded
                        Hours       Rate    Occurrence      Volume     Depth
  Node                 Flooded       LPS   days hr:min    10^6 ltr    Meters
  --------------------------------------------------------------------------
  HS02004770              0.31    602.50      0  02:30       0.314     0.000
  HS02004777              0.01     39.57      0  02:18       0.000     0.000
  HS02004785              0.01     58.50      0  02:18       0.000     0.000
  HS02004788              0.01    174.93      0  02:18       0.001     0.000
  HS02004792              0.29   1061.21      0  02:30       0.624     0.000
  HS02004799              0.11     76.84      0  02:29       0.015     0.000
  HS02004842              0.01     70.26      0  02:21       0.001     0.000
  HS02004901              0.38    542.31      0  02:30       0.512     0.000
  WS02006109              0.35    223.39      0  02:30       0.169     0.000
  WS02006112              0.01   1153.65      0  00:00       0.035     0.000
  WS02006228              0.01      1.28      0  02:21       0.000     0.000
  WS02006230              0.63    557.46      0  02:30       0.797     0.000
  WS02006232              0.14      1.44      0  02:23       0.000     0.000
  WS02006234              0.72    128.56      0  02:17       0.213     0.000
  WS02006242              0.80    137.29      0  02:31       0.348     0.000
  WS02006248              1.20    338.98      0  02:31       1.144     0.000
  WS02006249              1.95   1273.24      0  02:21       3.872     0.000
  WS02006252              0.39    479.12      0  02:30       0.350     0.000
  WS02006256              0.70    298.30      0  02:10       0.474     0.000
  YS02001580              0.01     50.88      0  02:16       0.000     0.000
  YS02001583              0.01     27.84      0  02:16       0.000     0.000
  YS02001586              0.36    233.05      0  02:30       0.145     0.000
  YS02001600              0.01      1.98      0  02:16       0.000     0.000
  YS02001601              0.60    856.91      0  02:30       0.933     0.000
  YS02001602              0.50     61.98      0  02:31       0.100     0.000
  YS02001610              0.43    448.18      0  02:30       0.352     0.000
  YS02001625              0.41   1099.17      0  02:30       0.875     0.000
  YS02001629              0.02     11.25      0  02:22       0.000     0.000
  YS02001644              0.14    433.43      0  02:30       0.104     0.000
  YS02001779              0.09    147.53      0  02:30       0.021     0.000
  YS02001890              0.08     22.51      0  02:30       0.003     0.000
  YS02001907              0.26   1294.42      0  02:30       0.660     0.000
  YS02001918              0.01     69.52      0  02:23       0.000     0.000
  YS02001929              0.01    181.29      0  02:22       0.000     0.000
  YSB1171                 0.22    558.62      0  02:30       0.207     0.000
  JK-storage              0.14   1051.34      0  02:25       0.433     0.000
  
  
  **********************
  Storage Volume Summary
  **********************
  
  --------------------------------------------------------------------------------------------------
                         Average     Avg  Evap Exfil       Maximum     Max    Time of Max    Maximum
                          Volume    Pcnt  Pcnt  Pcnt        Volume    Pcnt     Occurrence    Outflow
  Storage Unit           1000 m3    Full  Loss  Loss       1000 m3    Full    days hr:min        LPS
  --------------------------------------------------------------------------------------------------
  CC-storage               2.387      37     0     0         5.065      79       0  02:46    1766.00
  JK-storage               0.126      43     0     0         0.291     100       0  02:25    2379.72
  XR-storage               0.907      63     0     0         1.039      72       0  06:00     190.00
  
  
  ***********************
  Outfall Loading Summary
  ***********************
  
  -----------------------------------------------------------
                         Flow       Avg       Max       Total
                         Freq      Flow      Flow      Volume
  Outfall Node           Pcnt       LPS       LPS    10^6 ltr
  -----------------------------------------------------------
  CC-1                  25.02    683.00    683.00       3.695
  CC-2                  22.89    683.00    683.00       3.283
  JK-1                  15.75    679.74   1000.00       1.997
  JK-2                  15.75    679.74   1000.00       1.997
  WSC                   99.99    645.83   1485.94      12.863
  -----------------------------------------------------------
  System                35.88   3371.32   1485.94      23.836
  
  
  ********************
  Link Flow Summary
  ********************
  
  -----------------------------------------------------------------------------
                                 Maximum  Time of Max   Maximum    Max/    Max/
                                  |Flow|   Occurrence   |Veloc|    Full    Full
  Link                 Type          LPS  days hr:min     m/sec    Flow   Depth
  -----------------------------------------------------------------------------
  1                    CONDUIT   1485.94     0  02:33      3.69    0.52    0.51
  HS02004478WS02006287 CONDUIT   2273.11     0  02:30      2.60    0.64    1.00
  HS02004479HS02004480 CONDUIT    396.14     0  02:22      0.57    0.38    1.00
  HS02004480HS02004478 CONDUIT   2060.44     0  02:21      2.94    8.68    1.00
  HS02004770HS02004777 CONDUIT    697.98     0  02:17      1.00    1.28    1.00
  HS02004777HS02004785 CONDUIT    711.41     0  02:17      1.08    0.88    1.00
  HS02004785HS02004788 CONDUIT    649.07     0  02:18      1.35    4.89    1.00
  HS02004788HS02004792 CONDUIT    861.01     0  02:18      1.46    0.57    1.00
  HS02004792HS02004799 CONDUIT   1570.58     0  02:19      2.24    0.96    1.00
  HS02004799HS02004480 CONDUIT   1711.37     0  02:20      2.44    2.16    1.00
  HS02004802HS02004478 CONDUIT    942.39     0  02:30      1.35    0.83    1.00
  HS02004807HS02004802 CONDUIT    943.45     0  02:30      1.35    1.80    1.00
  HS02004817HS02004807 CONDUIT    618.49     0  02:30      0.88    0.37    1.00
  HS02004817HS02004824 CONDUIT    616.99     0  02:30      0.88    0.28    1.00
  HS02004824HS02004830 CONDUIT    552.83     0  02:18      0.80    0.72    1.00
  HS02004830HS02004837 CONDUIT    552.47     0  02:18      0.87    0.55    1.00
  HS02004837HS02004842 CONDUIT    745.99     0  02:21      1.07    0.45    1.00
  HS02004842HS02004848 CONDUIT    743.50     0  02:21      1.11    0.43    1.00
  HS02004848HS02004852 CONDUIT    972.69     0  02:21      1.50    1.10    1.00
  HS02004852HS02004856 CONDUIT    911.92     0  02:20      1.41    1.04    1.00
  HS02004856HS02004862 CONDUIT    950.79     0  02:20      1.62    0.95    1.00
  HS02004862HS02004870 CONDUIT    973.28     0  02:21      1.70    1.05    1.00
  HS02004870HS02004876 CONDUIT   1110.83     0  02:30      1.59    0.74    1.00
  HS02004876HS02004881 CONDUIT   1290.49     0  02:30      2.16   13.73    1.00
  HS02004881HS02006253 CONDUIT   1386.27     0  02:30      1.98    0.27    1.00
  HS02004901HS02004770 CONDUIT    265.78     0  02:36      0.38    1.00    1.00
  WS02001211WS02001212 CONDUIT    214.11     0  03:05      0.54    0.16    0.69
  WS02001212WS02001213 CONDUIT    218.05     0  03:04      1.04    0.34    0.55
  WS02001213WS02003059 CONDUIT    224.15     0  03:04      0.47    0.37    0.89
  WS02003059WS02003060 CONDUIT    231.89     0  03:03      0.67    0.15    0.81
  WS02003060WS02003069 CONDUIT   1484.52     0  02:31      2.08    0.58    0.60
  WS02003066WSF200     CONDUIT   1275.85     0  02:30      3.23    0.22    0.38
  WS02003067WS02003066 CONDUIT   1275.77     0  02:30      1.98    0.41    0.56
  WS02003069WS02003072 CONDUIT   1484.48     0  02:31      1.89    0.71    0.66
  WS02003072WS02003073 CONDUIT   1484.34     0  02:32      2.04    3.21    0.61
  WS02004138WS02004139 CONDUIT    191.01     0  00:29      2.14    0.04    0.41
  WS02004139WS02001211 CONDUIT    198.72     0  03:05      0.53    0.25    0.60
  WS02004401WS02004402 CONDUIT   1277.19     0  02:30      2.07    1.53    1.00
  WS02004402WS02004403 CONDUIT   1277.35     0  02:30      1.84    1.84    1.00
  WS02004403WS02004404 CONDUIT   1276.86     0  02:29      1.66    0.92    1.00
  WS02004404WS02004405 CONDUIT   1277.63     0  02:29      1.85   12.52    1.00
  WS02004405WS02004406 CONDUIT   1277.19     0  02:30      1.73    2.52    1.00
  WS02004406WS02004407 CONDUIT   1276.60     0  02:30      1.70    0.57    0.94
  WS02004407WS02004409 CONDUIT   1275.80     0  02:30      1.69    0.45    0.94
  WS02004409WS02004410 CONDUIT   1275.97     0  02:30      1.62    1.65    1.00
  WS02004410WS02004411 CONDUIT   1275.96     0  02:30      1.62    1.74    1.00
  WS02004411WS02004412 CONDUIT   1276.54     0  02:30      1.63    1.81    1.00
  WS02004412WS02004413 CONDUIT   1277.07     0  02:30      1.63    0.86    1.00
  WS02004413WS02003067 CONDUIT   1276.40     0  02:30      1.98    0.55    0.76
  WS02006109WS02006110 CONDUIT   1306.78     0  00:00      3.15    2.51    1.00
  WS02006110WS02006113 CONDUIT   1123.90     0  02:40      2.24    1.02    1.00
  WS02006111WS02006112 CONDUIT   2307.30     0  00:00      9.18    1.10    1.00
  WS02006112WS02006115 CONDUIT   2152.75     0  00:00      2.85    1.27    1.00
  WS02006113WS02006111 CONDUIT   1176.04     0  00:00      2.60    1.41    1.00
  WS02006115WS02006116 CONDUIT   1276.72     0  02:30      1.81    1.64    1.00
  WS02006116WS02004401 CONDUIT   1276.66     0  02:30      2.21    1.76    1.00
  WS02006228WS02006109 CONDUIT   1271.95     0  02:30      2.53    5.56    1.00
  WS02006229WS02006228 CONDUIT   1272.71     0  02:30      2.53    4.22    1.00
  WS02006230WS02006229 CONDUIT    999.83     0  02:30      2.60   22.25    1.00
  WS02006231WS02006230 CONDUIT    482.83     0  03:20      1.30    7.32    1.00
  WS02006232WS02006231 CONDUIT    481.68     0  03:20      1.25    1.01    1.00
  WS02006234WS02006232 CONDUIT    480.00     0  03:20      1.25    0.97    1.00
  WS02006235WS02006234 CONDUIT    475.84     0  03:20      1.24    5.02    1.00
  WS02006238WS02006235 CONDUIT    419.14     0  03:45      1.22    0.94    1.00
  WS02006239WS02006238 CONDUIT    419.03     0  03:45      1.09    1.34    1.00
  WS02006240WS02006239 CONDUIT    418.99     0  03:45      1.09    1.32    1.00
  WS02006242WS02006240 CONDUIT    418.92     0  03:45      1.09    1.66    1.00
  WS02006243WS02006242 CONDUIT    418.89     0  03:45      1.13    0.89    1.00
  WS02006245WS02006243 CONDUIT    418.85     0  03:45      1.13    1.24    1.00
  WS02006247WS02006245 CONDUIT    418.80     0  03:45      1.09    3.32    1.00
  WS02006248WS02006247 CONDUIT    418.74     0  03:45      1.12    0.91    1.00
  WS02006249WS02006248 CONDUIT    418.66     0  03:45      1.09    2.29    1.00
  WS02006251WS02006249 CONDUIT   1334.13     0  02:21      3.47    3.85    1.00
  WS02006252WS02006251 CONDUIT    416.20     0  02:10      4.19    1.53    1.00
  WS02006253WS02006251 CONDUIT   1408.75     0  02:30      3.66    4.22    1.00
  WS02006256WS02006235 CONDUIT    185.07     0  03:21      2.62    1.96    1.00
  WS02006280WS02006229 CONDUIT   2273.80     0  02:29      3.92    0.49    1.00
  WS02006284WS02006280 CONDUIT   2272.68     0  02:30      2.99    0.95    1.00
  WS02006287WS02006284 CONDUIT   2271.77     0  02:29      2.89    1.05    1.00
  WSF200WS02003060     CONDUIT   1275.97     0  02:30      2.27    0.28    0.50
  YS02001580YS02001583 CONDUIT     78.58     0  02:16      0.49    0.30    1.00
  YS02001583YS02001586 CONDUIT    110.13     0  02:15      0.46    0.17    1.00
  YS02001586YS02001590 CONDUIT    318.00     0  02:29      1.24    0.56    1.00
  YS02001590YS02001593 CONDUIT    318.03     0  02:29      1.12    2.00    1.00
  YS02001593YS02001596 CONDUIT    318.01     0  02:42      1.70    0.50    1.00
  YS02001596YS02001600 CONDUIT    318.10     0  02:29      1.25    0.62    1.00
  YS02001600YS02001601 CONDUIT    317.92     0  02:29      1.12    0.55    1.00
  YS02001601YS02001602 CONDUIT    491.85     0  02:15      1.74    1.78    1.00
  YS02001602YS02001605 CONDUIT    491.71     0  02:15      1.74   10.41    1.00
  YS02001605YS02001607 CONDUIT    491.91     0  02:15      1.74    2.70    1.00
  YS02001607YS02001610 CONDUIT    490.15     0  02:15      0.62    0.47    1.00
  YS02001610YS02001613 CONDUIT    492.33     0  02:15      0.63    0.57    1.00
  YS02001613YS02001616 CONDUIT    495.66     0  02:15      0.63    0.42    1.00
  YS02001616YS02001619 CONDUIT    496.88     0  02:15      0.66    0.86    1.00
  YS02001619YS02001622 CONDUIT    895.52     0  02:18      1.15    1.32    1.00
  YS02001622YS02001625 CONDUIT    895.19     0  02:18      1.14    0.48    1.00
  YS02001625YS02001629 CONDUIT    895.28     0  02:18      1.14    0.43    1.00
  YS02001629YS02163301 CONDUIT    895.12     0  02:18      1.14    1.10    1.00
  YS02001633YS02163601 CONDUIT   1243.31     0  02:18      1.58    1.31    1.00
  YS02001641YS02001644 CONDUIT   1243.12     0  02:19      1.58    4.02    1.00
  YS02001644YS02001647 CONDUIT   1562.35     0  02:19      2.05    0.92    1.00
  YS02001647YS02001649 CONDUIT   1575.29     0  02:19      2.21    0.83    1.00
  YS02001649YS02001757 CONDUIT   1716.73     0  02:20      2.25    1.04    1.00
  YS02001652YS02001649 CONDUIT    621.09     0  02:30      0.79    0.31    1.00
  YS02001655YS02001652 CONDUIT    617.65     0  02:30      1.23    0.30    1.00
  YS02001658YS02001655 CONDUIT    615.78     0  02:30      1.79    0.26    1.00
  YS02001661YS02001658 CONDUIT    613.51     0  02:30      2.11    0.24    0.99
  YS02001664YS02001661 CONDUIT    794.12     0  02:29      2.00    0.25    0.68
  YS02001745YS02001748 CONDUIT    484.80     0  02:24      1.95    0.19    0.87
  YS02001748YS02001751 CONDUIT    381.68     0  02:30      1.57    0.19    1.00
  YS02001751YS02001754 CONDUIT    381.58     0  02:30      1.39    0.18    1.00
  YS02001754YS02001757 CONDUIT    382.42     0  02:30      0.49    0.15    1.00
  YS02001757CaochengTiaoxuchi CONDUIT   2838.48     0  02:26      3.61    1.23    1.00
  YS02001759YS02001757 CONDUIT   1139.58     0  02:27      1.45    0.81    1.00
  YS02001762YS02001759 CONDUIT    662.68     0  02:27      0.84    0.76    1.00
  YS02001765YS02001762 CONDUIT    662.49     0  02:27      0.84    0.62    1.00
  YS02001767YS02001765 CONDUIT    662.22     0  02:27      0.84    0.83    1.00
  YS02001770YS02001767 CONDUIT    662.03     0  02:27      0.84    2.62    1.00
  YS02001774YS02001770 CONDUIT    198.89     0  02:19      0.25    0.13    1.00
  YS02001779YS02001774 CONDUIT    200.91     0  02:19      0.26    0.10    1.00
  YS02001783YS02001784 CONDUIT   1154.03     0  02:25      2.30    1.59    1.00
  YS02001784YS02001785 CONDUIT   1154.63     0  02:25      2.30    2.69    1.00
  YS02001786YS02001788 CONDUIT   1157.52     0  02:25      2.46    2.23    1.00
  YS02001788YS02001790 CONDUIT   1201.71     0  02:31      2.72    0.89    1.00
  YS02001790YS02001791 CONDUIT   1355.60     0  02:31      3.42    1.47    1.00
  YS02001791YS02001793 CONDUIT   1409.89     0  02:31      6.70    0.61    1.00
  YS02001793JiankangQianchi CONDUIT   1697.05     0  02:31     24.40    0.13    1.00
  YS02001882YS02001884 CONDUIT     32.42     0  02:19      0.12    0.04    1.00
  YS02001884YS02001887 CONDUIT     58.39     0  02:52      0.10    0.08    1.00
  YS02001887YS02001890 CONDUIT    537.79     0  02:30      0.68    0.92    1.00
  YS02001890YS02001895 CONDUIT    515.17     0  02:30      0.66    0.24    1.00
  YS02001895YS02001898 CONDUIT    515.37     0  02:30      0.66    0.89    1.00
  YS02001898YS02001901 CONDUIT    515.60     0  02:30      0.66    0.33    1.00
  YS02001901YS02001904 CONDUIT    515.65     0  02:30      0.66    0.80    1.00
  YS02001904YS02001907 CONDUIT    515.72     0  02:30      0.66    0.18    1.00
  YS02001907YS02006553 CONDUIT    792.48     0  02:39      0.88    0.93    1.00
  YS02001910YS02001907 CONDUIT   1004.66     0  02:30      1.28    0.57    1.00
  YS02001915YS02001910 CONDUIT   1003.57     0  02:30      1.28    0.50    1.00
  YS02001918YS02001915 CONDUIT    451.12     0  02:23      0.57    0.25    1.00
  YS02001920YS02001918 CONDUIT    449.61     0  02:23      0.66    0.43    1.00
  YS02001923YS02001920 CONDUIT    445.77     0  02:23      0.69    0.20    1.00
  YS02001926YS02001923 CONDUIT    410.84     0  02:23      0.94    0.59    1.00
  YS02001929YS02001926 CONDUIT    407.79     0  02:23      1.06    0.19    1.00
  YS02006553YS02006556 CONDUIT    792.61     0  02:39      1.01    0.68    1.00
  YS02006556YS02006558 CONDUIT    793.58     0  02:40      1.01    0.63    1.00
  YS02006558YS02006561 CONDUIT   1153.17     0  02:25      4.08    2.55    1.00
  YS02006561YS02001783 CONDUIT   1153.00     0  02:25      2.29    0.60    1.00
  YS02163301YS02001633 CONDUIT    894.60     0  02:18      1.14    0.84    1.00
  YS02163601YS02164001 CONDUIT   1243.49     0  02:18      1.58    1.10    1.00
  YS02164001YS02001641 CONDUIT   1242.82     0  02:18      1.58    1.70    1.00
  YSB1154YSB6556       CONDUIT    307.54     0  02:30      0.80    0.55    1.00
  YSB1171HS02004479    CONDUIT    395.04     0  02:22      0.79    0.26    1.00
  YSB1174YSB1171       CONDUIT    251.82     0  02:30      0.65    0.39    1.00
  YSB6556YSB1171       CONDUIT    308.20     0  02:30      0.80    0.32    1.00
  CC-R1                PUMP       683.00     0  02:20              1.00
  CC-R2                PUMP       683.00     0  02:30              1.00
  CC-S1                PUMP       200.00     0  00:40              1.00
  CC-S2                PUMP       200.00     0  02:10              1.00
  JK-R1                PUMP      1000.00     0  01:50              1.00
  JK-R2                PUMP      1000.00     0  01:50              1.00
  JK-S                 PUMP       300.00     0  01:50              1.00
  XR-1                 PUMP        95.00     0  00:10              1.00
  XR-2                 PUMP        95.00     0  00:29              1.00
  XR-3                 PUMP         0.00     0  00:00              0.00
  XR-4                 PUMP         0.00     0  00:00              0.00
  
  
  ***************************
  Flow Classification Summary
  ***************************
  
  -------------------------------------------------------------------------------------
                      Adjusted    ---------- Fraction of Time in Flow Class ---------- 
                       /Actual         Up    Down  Sub   Sup   Up    Down  Norm  Inlet 
  Conduit               Length    Dry  Dry   Dry   Crit  Crit  Crit  Crit  Ltd   Ctrl  
  -------------------------------------------------------------------------------------
  1                       1.00   0.00  0.00  0.00  0.00  1.00  0.00  0.00  0.39  0.00
  HS02004478WS02006287    1.00   0.27  0.00  0.00  0.38  0.35  0.00  0.00  0.45  0.00
  HS02004479HS02004480    1.00   0.01  0.00  0.00  0.99  0.00  0.00  0.00  0.15  0.00
  HS02004480HS02004478    1.00   0.18  0.00  0.00  0.28  0.00  0.00  0.54  0.00  0.00
  HS02004770HS02004777    1.00   0.00  0.16  0.00  0.84  0.00  0.00  0.00  0.03  0.00
  HS02004777HS02004785    1.00   0.00  0.00  0.00  1.00  0.00  0.00  0.00  0.16  0.00
  HS02004785HS02004788    1.00   0.00  0.00  0.00  1.00  0.00  0.00  0.00  0.00  0.00
  HS02004788HS02004792    1.00   0.00  0.00  0.00  1.00  0.00  0.00  0.00  0.88  0.00
  HS02004792HS02004799    1.00   0.00  0.00  0.00  1.00  0.00  0.00  0.00  0.82  0.00
  HS02004799HS02004480    1.00   0.00  0.01  0.00  0.74  0.00  0.25  0.00  0.00  0.00
  HS02004802HS02004478    1.00   0.18  0.02  0.00  0.80  0.00  0.00  0.00  0.03  0.00
  HS02004807HS02004802    1.00   0.16  0.00  0.00  0.77  0.00  0.00  0.06  0.00  0.00
  HS02004817HS02004807    1.00   0.00  0.16  0.00  0.84  0.00  0.00  0.00  0.01  0.00
  HS02004817HS02004824    1.00   0.00  0.00  0.00  1.00  0.00  0.00  0.00  0.76  0.00
  HS02004824HS02004830    1.00   0.00  0.00  0.00  1.00  0.00  0.00  0.00  0.02  0.00
  HS02004830HS02004837    1.00   0.00  0.00  0.00  1.00  0.00  0.00  0.00  0.85  0.00
  HS02004837HS02004842    1.00   0.00  0.00  0.00  1.00  0.00  0.00  0.00  0.14  0.00
  HS02004842HS02004848    1.00   0.00  0.16  0.00  0.84  0.00  0.00  0.00  0.40  0.00
  HS02004848HS02004852    1.00   0.16  0.00  0.00  0.84  0.00  0.00  0.00  0.60  0.00
  HS02004852HS02004856    1.00   0.16  0.04  0.00  0.80  0.00  0.00  0.00  0.56  0.00
  HS02004856HS02004862    1.00   0.00  0.30  0.00  0.70  0.00  0.00  0.00  0.66  0.00
  HS02004862HS02004870    1.00   0.00  0.00  0.00  1.00  0.00  0.00  0.00  0.05  0.00
  HS02004870HS02004876    1.00   0.00  0.00  0.00  1.00  0.00  0.00  0.00  0.83  0.00
  HS02004876HS02004881    1.00   0.00  0.00  0.00  0.74  0.26  0.00  0.00  0.00  0.00
  HS02004881HS02006253    1.00   0.02  0.00  0.00  0.80  0.00  0.00  0.18  0.43  0.00
  HS02004901HS02004770    1.00   0.16  0.00  0.00  0.84  0.00  0.00  0.00  0.00  0.00
  WS02001211WS02001212    1.00   0.00  0.01  0.00  0.99  0.00  0.00  0.00  0.00  0.00
  WS02001212WS02001213    1.00   0.01  0.00  0.00  0.50  0.00  0.49  0.00  0.00  0.00
  WS02001213WS02003059    1.00   0.00  0.00  0.00  1.00  0.00  0.00  0.00  0.00  0.00
  WS02003059WS02003060    1.00   0.00  0.00  0.00  1.00  0.00  0.00  0.00  0.04  0.00
  WS02003060WS02003069    1.00   0.00  0.00  0.00  0.99  0.01  0.00  0.00  0.38  0.00
  WS02003066WSF200        1.00   0.12  0.00  0.00  0.00  0.88  0.00  0.00  0.44  0.00
  WS02003067WS02003066    1.00   0.03  0.07  0.00  0.90  0.00  0.00  0.00  0.00  0.00
  WS02003069WS02003072    1.00   0.00  0.00  0.00  1.00  0.00  0.00  0.00  0.46  0.00
  WS02003072WS02003073    1.00   0.00  0.00  0.00  0.00  0.00  0.00  1.00  0.00  0.00
  WS02004138WS02004139    1.00   0.01  0.00  0.00  0.99  0.00  0.00  0.00  0.97  0.00
  WS02004139WS02001211    1.00   0.00  0.00  0.00  1.00  0.00  0.00  0.00  0.01  0.00
  WS02004401WS02004402    1.00   0.00  0.00  0.00  1.00  0.00  0.00  0.00  0.00  0.00
  WS02004402WS02004403    1.00   0.00  0.00  0.00  1.00  0.00  0.00  0.00  0.00  0.00
  WS02004403WS02004404    1.00   0.00  0.00  0.00  1.00  0.00  0.00  0.00  0.00  0.00
  WS02004404WS02004405    1.00   0.00  0.00  0.00  1.00  0.00  0.00  0.00  0.00  0.00
  WS02004405WS02004406    1.00   0.00  0.00  0.00  1.00  0.00  0.00  0.00  0.00  0.00
  WS02004406WS02004407    1.00   0.00  0.00  0.00  1.00  0.00  0.00  0.00  0.01  0.00
  WS02004407WS02004409    1.00   0.00  0.00  0.00  1.00  0.00  0.00  0.00  0.82  0.00
  WS02004409WS02004410    1.00   0.00  0.00  0.00  1.00  0.00  0.00  0.00  0.05  0.00
  WS02004410WS02004411    1.00   0.00  0.00  0.00  1.00  0.00  0.00  0.00  0.03  0.00
  WS02004411WS02004412    1.00   0.00  0.00  0.00  1.00  0.00  0.00  0.00  0.01  0.00
  WS02004412WS02004413    1.00   0.00  0.00  0.00  1.00  0.00  0.00  0.00  0.02  0.00
  WS02004413WS02003067    1.00   0.01  0.02  0.00  0.00  0.00  0.97  0.00  0.00  0.00
  WS02006109WS02006110    1.00   0.00  0.00  0.00  1.00  0.00  0.00  0.00  0.00  0.00
  WS02006110WS02006113    1.00   0.00  0.00  0.00  1.00  0.00  0.00  0.00  0.00  0.00
  WS02006111WS02006112    1.00   0.00  0.00  0.00  1.00  0.00  0.00  0.00  0.69  0.00
  WS02006112WS02006115    1.00   0.00  0.00  0.00  1.00  0.00  0.00  0.00  0.00  0.00
  WS02006113WS02006111    1.00   0.00  0.00  0.00  0.27  0.73  0.00  0.00  0.08  0.00
  WS02006115WS02006116    1.00   0.00  0.00  0.00  1.00  0.00  0.00  0.00  0.00  0.00
  WS02006116WS02004401    1.00   0.00  0.00  0.00  1.00  0.00  0.00  0.00  0.00  0.00
  WS02006228WS02006109    1.00   0.00  0.00  0.00  1.00  0.00  0.00  0.00  0.00  0.00
  WS02006229WS02006228    1.00   0.00  0.00  0.00  1.00  0.00  0.00  0.00  0.00  0.00
  WS02006230WS02006229    1.00   0.00  0.00  0.00  1.00  0.00  0.00  0.00  0.02  0.00
  WS02006231WS02006230    1.00   0.00  0.00  0.00  0.52  0.00  0.48  0.00  0.00  0.00
  WS02006232WS02006231    1.00   0.00  0.00  0.00  0.99  0.00  0.01  0.00  0.01  0.00
  WS02006234WS02006232    1.00   0.00  0.00  0.00  1.00  0.00  0.00  0.00  0.17  0.00
  WS02006235WS02006234    1.00   0.06  0.00  0.00  0.85  0.00  0.09  0.00  0.00  0.00
  WS02006238WS02006235    1.00   0.05  0.01  0.00  0.93  0.01  0.00  0.00  0.00  0.00
  WS02006239WS02006238    1.00   0.05  0.00  0.00  0.94  0.00  0.00  0.01  0.16  0.00
  WS02006240WS02006239    1.00   0.05  0.00  0.00  0.81  0.00  0.00  0.15  0.00  0.00
  WS02006242WS02006240    1.00   0.02  0.03  0.00  0.94  0.00  0.02  0.00  0.00  0.00
  WS02006243WS02006242    1.00   0.01  0.00  0.00  0.94  0.00  0.00  0.04  0.33  0.00
  WS02006245WS02006243    1.00   0.01  0.00  0.00  0.90  0.00  0.00  0.09  0.00  0.00
  WS02006247WS02006245    1.00   0.01  0.00  0.00  0.95  0.00  0.00  0.04  0.00  0.00
  WS02006248WS02006247    1.00   0.01  0.00  0.00  0.96  0.00  0.00  0.03  0.34  0.00
  WS02006249WS02006248    1.00   0.00  0.01  0.00  0.81  0.00  0.19  0.00  0.00  0.00
  WS02006251WS02006249    1.00   0.00  0.00  0.00  1.00  0.00  0.00  0.00  0.42  0.00
  WS02006252WS02006251    1.00   0.03  0.00  0.00  0.36  0.00  0.61  0.00  0.00  0.00
  WS02006253WS02006251    1.00   0.01  0.01  0.00  0.97  0.00  0.01  0.00  0.00  0.00
  WS02006256WS02006235    1.00   0.06  0.00  0.00  0.93  0.01  0.00  0.00  0.00  0.00
  WS02006280WS02006229    1.00   0.20  0.00  0.00  0.21  0.04  0.00  0.54  0.01  0.00
  WS02006284WS02006280    1.00   0.20  0.00  0.00  0.14  0.01  0.00  0.65  0.00  0.00
  WS02006287WS02006284    1.00   0.09  0.18  0.00  0.26  0.47  0.00  0.00  0.52  0.00
  WSF200WS02003060        1.00   0.00  0.12  0.00  0.41  0.47  0.00  0.00  0.41  0.00
  YS02001580YS02001583    1.00   0.55  0.20  0.00  0.26  0.00  0.00  0.00  0.51  0.00
  YS02001583YS02001586    1.00   0.20  0.48  0.00  0.31  0.00  0.00  0.00  0.51  0.00
  YS02001586YS02001590    1.00   0.16  0.00  0.00  0.64  0.05  0.00  0.14  0.51  0.00
  YS02001590YS02001593    1.00   0.16  0.02  0.00  0.16  0.00  0.65  0.00  0.00  0.00
  YS02001593YS02001596    1.00   0.19  0.00  0.00  0.19  0.01  0.00  0.61  0.03  0.00
  YS02001596YS02001600    1.00   0.19  0.00  0.00  0.30  0.03  0.00  0.47  0.07  0.00
  YS02001600YS02001601    1.00   0.17  0.03  0.00  0.80  0.00  0.00  0.00  0.46  0.00
  YS02001601YS02001602    1.00   0.16  0.03  0.00  0.81  0.00  0.00  0.00  0.00  0.00
  YS02001602YS02001605    1.00   0.19  0.00  0.00  0.81  0.00  0.00  0.00  0.00  0.00
  YS02001605YS02001607    1.00   0.20  0.00  0.00  0.80  0.00  0.00  0.00  0.00  0.00
  YS02001607YS02001610    1.00   0.18  0.02  0.00  0.80  0.00  0.00  0.00  0.02  0.00
  YS02001610YS02001613    1.00   0.17  0.00  0.00  0.83  0.00  0.00  0.00  0.01  0.00
  YS02001613YS02001616    1.00   0.16  0.00  0.00  0.84  0.00  0.00  0.00  0.01  0.00
  YS02001616YS02001619    1.00   0.16  0.00  0.00  0.84  0.00  0.00  0.00  0.00  0.00
  YS02001619YS02001622    1.00   0.16  0.00  0.00  0.84  0.00  0.00  0.00  0.05  0.00
  YS02001622YS02001625    1.00   0.16  0.00  0.00  0.84  0.00  0.00  0.00  0.06  0.00
  YS02001625YS02001629    1.00   0.17  0.16  0.00  0.23  0.00  0.45  0.00  0.00  0.00
  YS02001629YS02163301    1.00   0.25  0.04  0.00  0.71  0.00  0.00  0.00  0.00  0.00
  YS02001633YS02163601    1.00   0.00  0.00  0.00  1.00  0.00  0.00  0.00  0.20  0.00
  YS02001641YS02001644    1.00   0.00  0.00  0.00  1.00  0.00  0.00  0.00  0.00  0.00
  YS02001644YS02001647    1.00   0.00  0.31  0.00  0.69  0.00  0.00  0.00  0.00  0.00
  YS02001647YS02001649    1.00   0.00  0.31  0.00  0.37  0.32  0.00  0.00  0.41  0.00
  YS02001649YS02001757    1.00   0.00  0.00  0.00  0.66  0.34  0.00  0.00  0.44  0.00
  YS02001652YS02001649    1.00   0.00  0.00  0.00  0.88  0.12  0.00  0.00  0.65  0.00
  YS02001655YS02001652    1.00   0.00  0.00  0.00  0.26  0.02  0.00  0.72  0.07  0.00
  YS02001658YS02001655    1.00   0.00  0.21  0.00  0.37  0.43  0.00  0.00  0.58  0.00
  YS02001661YS02001658    1.00   0.21  0.00  0.00  0.22  0.58  0.00  0.00  0.59  0.00
  YS02001664YS02001661    1.00   0.16  0.00  0.00  0.69  0.15  0.00  0.00  0.81  0.00
  YS02001745YS02001748    1.00   0.00  0.00  0.00  0.13  0.00  0.00  0.86  0.05  0.00
  YS02001748YS02001751    1.00   0.00  0.00  0.00  0.58  0.42  0.00  0.00  0.64  0.00
  YS02001751YS02001754    1.00   0.00  0.00  0.00  0.21  0.01  0.00  0.77  0.03  0.00
  YS02001754YS02001757    1.00   0.00  0.00  0.00  1.00  0.00  0.00  0.00  0.77  0.00
  YS02001757CaochengTiaoxuchi    1.00   0.00  0.00  0.00  1.00  0.00  0.00  0.00  0.67  0.00
  YS02001759YS02001757    1.00   0.00  0.00  0.00  1.00  0.00  0.00  0.00  0.55  0.00
  YS02001762YS02001759    1.00   0.00  0.00  0.00  1.00  0.00  0.00  0.00  0.07  0.00
  YS02001765YS02001762    1.00   0.00  0.00  0.00  1.00  0.00  0.00  0.00  0.61  0.00
  YS02001767YS02001765    1.00   0.00  0.00  0.00  1.00  0.00  0.00  0.00  0.00  0.00
  YS02001770YS02001767    1.00   0.00  0.00  0.00  1.00  0.00  0.00  0.00  0.00  0.00
  YS02001774YS02001770    1.00   0.00  0.19  0.00  0.81  0.00  0.00  0.00  0.04  0.00
  YS02001779YS02001774    1.00   0.00  0.00  0.00  1.00  0.00  0.00  0.00  0.67  0.00
  YS02001783YS02001784    1.00   0.00  0.34  0.00  0.66  0.00  0.00  0.00  0.39  0.00
  YS02001784YS02001785    1.00   0.00  0.00  0.00  1.00  0.00  0.00  0.00  0.23  0.00
  YS02001786YS02001788    1.00   0.00  0.00  0.00  0.65  0.35  0.00  0.00  0.00  0.00
  YS02001788YS02001790    1.00   0.00  0.00  0.00  0.41  0.59  0.00  0.00  0.73  0.00
  YS02001790YS02001791    1.00   0.00  0.00  0.00  0.03  0.97  0.00  0.00  0.21  0.00
  YS02001791YS02001793    1.00   0.00  0.00  0.00  0.06  0.94  0.00  0.00  0.03  0.00
  YS02001793JiankangQianchi    1.00   0.00  0.00  0.00  0.85  0.15  0.00  0.00  0.82  0.00
  YS02001882YS02001884    1.00   0.24  0.03  0.00  0.73  0.00  0.00  0.00  0.00  0.00
  YS02001884YS02001887    1.00   0.02  0.10  0.00  0.88  0.00  0.00  0.00  0.00  0.00
  YS02001887YS02001890    1.00   0.00  0.00  0.00  0.99  0.00  0.01  0.00  0.00  0.00
  YS02001890YS02001895    1.00   0.00  0.29  0.00  0.71  0.00  0.00  0.00  0.00  0.00
  YS02001895YS02001898    1.00   0.29  0.01  0.00  0.65  0.00  0.06  0.00  0.00  0.00
  YS02001898YS02001901    1.00   0.29  0.00  0.00  0.70  0.00  0.00  0.00  0.02  0.00
  YS02001901YS02001904    1.00   0.29  0.00  0.00  0.71  0.00  0.00  0.00  0.00  0.00
  YS02001904YS02001907    1.00   0.00  0.29  0.00  0.71  0.00  0.00  0.00  0.00  0.00
  YS02001907YS02006553    1.00   0.00  0.01  0.00  0.99  0.00  0.00  0.00  0.00  0.00
  YS02001910YS02001907    1.00   0.00  0.00  0.00  0.99  0.00  0.00  0.01  0.16  0.00
  YS02001915YS02001910    1.00   0.00  0.00  0.00  0.92  0.08  0.00  0.00  0.21  0.00
  YS02001918YS02001915    1.00   0.00  0.00  0.00  1.00  0.00  0.00  0.00  0.68  0.00
  YS02001920YS02001918    1.00   0.00  0.00  0.00  1.00  0.00  0.00  0.00  0.01  0.00
  YS02001923YS02001920    1.00   0.00  0.00  0.00  1.00  0.00  0.00  0.00  0.91  0.00
  YS02001926YS02001923    1.00   0.00  0.02  0.00  0.07  0.00  0.91  0.00  0.00  0.00
  YS02001929YS02001926    1.00   0.00  0.16  0.00  0.84  0.00  0.00  0.00  0.77  0.00
  YS02006553YS02006556    1.00   0.00  0.00  0.00  1.00  0.00  0.00  0.00  0.04  0.00
  YS02006556YS02006558    1.00   0.00  0.00  0.00  1.00  0.00  0.00  0.00  0.00  0.00
  YS02006558YS02006561    1.00   0.34  0.00  0.00  0.07  0.60  0.00  0.00  0.26  0.00
  YS02006561YS02001783    1.00   0.34  0.00  0.00  0.12  0.55  0.00  0.00  0.58  0.00
  YS02163301YS02001633    1.00   0.00  0.25  0.00  0.75  0.00  0.00  0.00  0.00  0.00
  YS02163601YS02164001    1.00   0.00  0.03  0.00  0.97  0.00  0.00  0.00  0.00  0.00
  YS02164001YS02001641    1.00   0.00  0.02  0.00  0.97  0.00  0.00  0.00  0.07  0.00
  YSB1154YSB6556          1.00   0.16  0.00  0.00  0.84  0.00  0.00  0.00  0.02  0.00
  YSB1171HS02004479       1.00   0.01  0.00  0.00  0.98  0.00  0.00  0.00  0.13  0.00
  YSB1174YSB1171          1.00   0.02  0.04  0.00  0.94  0.00  0.00  0.00  0.00  0.00
  YSB6556YSB1171          1.00   0.01  0.14  0.00  0.84  0.00  0.00  0.00  0.00  0.00
  
  
  *************************
  Conduit Surcharge Summary
  *************************
  
  ----------------------------------------------------------------------------
                                                           Hours        Hours 
                         --------- Hours Full --------   Above Full   Capacity
  Conduit                Both Ends  Upstream  Dnstream   Normal Flow   Limited
  ----------------------------------------------------------------------------
  HS02004478WS02006287        0.41      0.41      0.59      0.01         0.01
  HS02004479HS02004480        0.59      0.59      0.62      0.01         0.01
  HS02004480HS02004478        0.52      0.58      0.52      1.69         0.52
  HS02004770HS02004777        0.48      0.48      0.49      0.12         0.07
  HS02004777HS02004785        0.44      0.44      0.49      0.01         0.01
  HS02004785HS02004788        0.42      0.44      0.42      1.36         0.41
  HS02004788HS02004792        0.42      0.42      0.54      0.01         0.01
  HS02004792HS02004799        0.54      0.54      0.68      0.01         0.01
  HS02004799HS02004480        0.58      0.58      0.68      0.78         0.01
  HS02004802HS02004478        0.53      0.53      0.61      0.01         0.01
  HS02004807HS02004802        0.57      0.57      0.60      0.17         0.19
  HS02004817HS02004807        0.57      0.57      1.17      0.01         0.01
  HS02004817HS02004824        0.43      0.43      1.17      0.01         0.01
  HS02004824HS02004830        0.40      0.40      0.43      0.01         0.01
  HS02004830HS02004837        0.36      0.36      0.40      0.01         0.01
  HS02004837HS02004842        0.36      0.36      0.50      0.01         0.01
  HS02004842HS02004848        0.33      0.33      0.50      0.01         0.01
  HS02004848HS02004852        0.33      0.33      0.35      0.01         0.01
  HS02004852HS02004856        0.35      0.35      0.37      0.01         0.01
  HS02004856HS02004862        0.34      0.34      0.38      0.01         0.01
  HS02004862HS02004870        0.38      0.38      0.39      0.02         0.05
  HS02004870HS02004876        0.39      0.39      0.47      0.01         0.01
  HS02004876HS02004881        0.45      0.47      0.45      1.41         0.44
  HS02004881HS02006253        0.45      0.45      2.05      0.01         0.01
  HS02004901HS02004770        0.48      0.48      0.48      0.01         0.01
  WS02003072WS02003073        0.01      0.01      0.01      2.66         0.01
  WS02004401WS02004402        1.62      1.62      1.69      1.37         1.36
  WS02004402WS02004403        1.69      1.69      1.71      1.61         1.60
  WS02004403WS02004404        1.71      1.71      1.88      0.01         0.01
  WS02004404WS02004405        1.85      1.88      1.85      3.35         1.85
  WS02004405WS02004406        1.83      1.85      1.83      2.26         1.83
  WS02004406WS02004407        0.01      0.01      1.83      0.01         0.01
  WS02004407WS02004409        0.01      0.01      1.00      0.01         0.01
  WS02004409WS02004410        0.92      1.00      0.92      1.45         0.92
  WS02004410WS02004411        0.81      0.92      0.81      1.52         0.81
  WS02004411WS02004412        0.71      0.81      0.71      1.59         0.71
  WS02004412WS02004413        0.71      0.71      1.29      0.01         0.01
  WS02004413WS02003067        0.01      0.01      1.29      0.01         0.01
  WS02006109WS02006110        2.19      2.20      2.44      2.21         0.01
  WS02006110WS02006113        1.26      1.26      2.44      0.29         0.01
  WS02006111WS02006112        1.23      1.24      2.58      0.01         0.01
  WS02006112WS02006115        1.47      1.47      2.28      0.01         0.01
  WS02006113WS02006111        1.25      1.26      1.25      1.35         1.25
  WS02006115WS02006116        1.48      1.48      1.49      1.44         1.44
  WS02006116WS02004401        1.62      1.62      1.62      1.54         1.53
  WS02006228WS02006109        2.41      2.44      2.41      2.66         2.41
  WS02006229WS02006228        2.41      2.42      2.41      2.55         2.41
  WS02006230WS02006229        2.47      2.50      2.47      3.28         1.51
  WS02006231WS02006230        1.90      1.90      2.19      3.15         0.95
  WS02006232WS02006231        2.17      2.17      2.29      0.01         0.14
  WS02006234WS02006232        2.22      2.22      2.29      0.01         0.01
  WS02006235WS02006234        2.20      2.20      2.22      3.07         0.92
  WS02006238WS02006235        2.23      2.23      2.25      0.01         0.32
  WS02006239WS02006238        2.22      2.22      2.23      1.41         0.66
  WS02006240WS02006239        2.19      2.19      2.20      1.39         0.64
  WS02006242WS02006240        2.18      2.18      2.21      1.64         0.81
  WS02006243WS02006242        2.15      2.15      2.20      0.01         0.01
  WS02006245WS02006243        2.13      2.13      2.15      0.55         0.57
  WS02006247WS02006245        2.13      2.13      2.13      2.90         0.96
  WS02006248WS02006247        2.11      2.11      2.13      0.01         0.01
  WS02006249WS02006248        2.11      2.11      2.11      1.90         0.01
  WS02006251WS02006249        2.10      2.10      2.11      1.97         1.99
  WS02006252WS02006251        2.05      2.05      2.07      1.38         0.01
  WS02006253WS02006251        2.10      2.10      2.11      0.73         0.01
  WS02006256WS02006235        3.23      3.24      4.64      0.35         0.01
  WS02006280WS02006229        0.72      0.72      0.85      0.01         0.01
  WS02006284WS02006280        0.62      0.62      0.70      0.01         0.01
  WS02006287WS02006284        0.51      0.51      0.63      0.23         0.24
  YS02001580YS02001583        0.50      0.50      0.56      0.01         0.01
  YS02001583YS02001586        0.51      0.51      0.66      0.01         0.01
  YS02001586YS02001590        0.67      0.67      0.74      0.01         0.01
  YS02001590YS02001593        0.74      0.74      0.76      0.75         0.01
  YS02001593YS02001596        0.76      0.76      0.87      0.01         0.01
  YS02001596YS02001600        0.93      0.93      1.03      0.01         0.01
  YS02001600YS02001601        1.08      1.08      1.39      0.01         0.01
  YS02001601YS02001602        1.27      1.27      1.43      1.03         0.01
  YS02001602YS02001605        1.21      1.21      1.27      2.33         0.01
  YS02001605YS02001607        1.17      1.21      1.17      1.32         1.16
  YS02001607YS02001610        0.74      0.74      0.77      0.01         0.01
  YS02001610YS02001613        0.73      0.73      0.77      0.01         0.01
  YS02001613YS02001616        0.69      0.69      0.73      0.01         0.01
  YS02001616YS02001619        0.68      0.68      0.69      0.01         0.01
  YS02001619YS02001622        0.68      0.68      0.68      0.71         0.60
  YS02001622YS02001625        0.68      0.68      0.86      0.01         0.01
  YS02001625YS02001629        0.63      0.63      0.86      0.01         0.01
  YS02001629YS02163301        0.86      0.86      0.87      0.07         0.10
  YS02001633YS02163601        0.90      0.90      0.93      0.24         0.23
  YS02001641YS02001644        0.81      0.84      0.81      1.49         0.78
  YS02001644YS02001647        0.61      0.61      0.81      0.01         0.01
  YS02001647YS02001649        0.61      0.61      0.74      0.01         0.01
  YS02001649YS02001757        0.74      0.74      0.80      0.03         0.03
  YS02001652YS02001649        0.57      0.57      0.74      0.01         0.01
  YS02001655YS02001652        0.41      0.41      0.55      0.01         0.01
  YS02001658YS02001655        0.22      0.22      0.41      0.01         0.01
  YS02001661YS02001658        0.01      0.01      0.22      0.01         0.01
  YS02001664YS02001661        0.01      0.01      0.01      0.01         0.01
  YS02001745YS02001748        0.01      0.01      0.12      0.01         0.01
  YS02001748YS02001751        0.17      0.17      0.31      0.01         0.01
  YS02001751YS02001754        0.31      0.31      0.49      0.01         0.01
  YS02001754YS02001757        0.52      0.52      0.80      0.01         0.01
  YS02001757CaochengTiaoxuchi        0.80      0.80      1.38      0.26         0.26
  YS02001759YS02001757        0.72      0.72      0.80      0.01         0.01
  YS02001762YS02001759        0.70      0.70      0.72      0.01         0.01
  YS02001765YS02001762        0.65      0.65      0.70      0.01         0.01
  YS02001767YS02001765        0.62      0.62      0.65      0.01         0.01
  YS02001770YS02001767        0.62      0.62      0.62      0.39         0.36
  YS02001774YS02001770        0.59      0.59      0.68      0.01         0.01
  YS02001779YS02001774        0.48      0.48      0.68      0.01         0.01
  YS02001783YS02001784        0.52      0.54      0.52      0.61         0.49
  YS02001784YS02001785        0.39      0.52      0.39      0.92         0.39
  YS02001786YS02001788        0.15      0.39      0.15      0.79         0.14
  YS02001788YS02001790        0.15      0.15      0.17      0.01         0.01
  YS02001790YS02001791        0.16      0.17      0.17      0.43         0.09
  YS02001791YS02001793        0.17      0.17      0.26      0.01         0.01
  YS02001793JiankangQianchi        0.22      0.22      4.93      0.01         0.01
  YS02001882YS02001884        0.41      0.41      0.42      0.01         0.01
  YS02001884YS02001887        0.44      0.44      0.46      0.01         0.01
  YS02001887YS02001890        0.47      0.47      0.48      0.01         0.01
  YS02001890YS02001895        0.40      0.40      0.50      0.01         0.01
  YS02001895YS02001898        0.39      0.39      0.40      0.01         0.01
  YS02001898YS02001901        0.40      0.40      0.44      0.01         0.01
  YS02001901YS02001904        0.43      0.43      0.44      0.01         0.01
  YS02001904YS02001907        0.43      0.43      0.77      0.01         0.01
  YS02001907YS02006553        0.92      0.92      1.00      0.01         0.01
  YS02001910YS02001907        0.51      0.51      0.75      0.01         0.01
  YS02001915YS02001910        0.40      0.40      0.51      0.01         0.01
  YS02001918YS02001915        0.32      0.32      0.40      0.01         0.01
  YS02001920YS02001918        0.32      0.32      0.33      0.01         0.01
  YS02001923YS02001920        0.27      0.27      0.33      0.01         0.01
  YS02001926YS02001923        0.01      0.01      0.01      0.01         0.01
  YS02001929YS02001926        0.01      0.01      0.01      0.01         0.01
  YS02006553YS02006556        0.62      0.62      0.77      0.01         0.01
  YS02006556YS02006558        0.69      0.69      0.78      0.01         0.01
  YS02006558YS02006561        0.36      0.61      0.36      0.87         0.36
  YS02006561YS02001783        0.28      0.28      0.54      0.01         0.01
  YS02163301YS02001633        0.87      0.87      0.91      0.01         0.01
  YS02163601YS02164001        0.84      0.84      0.93      0.08         0.01
  YS02164001YS02001641        0.84      0.84      0.84      0.63         0.55
  YSB1154YSB6556              0.66      0.66      0.81      0.01         0.01
  YSB1171HS02004479           0.54      0.54      0.81      0.01         0.01
  YSB1174YSB1171              0.73      0.73      1.08      0.01         0.01
  YSB6556YSB1171              0.66      0.66      1.23      0.01         0.01
  
  
  ***************
  Pumping Summary
  ***************
  
  ---------------------------------------------------------------------------------------------------------
                                                  Min       Avg       Max     Total     Power    % Time Off
                        Percent   Number of      Flow      Flow      Flow    Volume     Usage    Pump Curve
  Pump                 Utilized   Start-Ups       LPS       LPS       LPS  10^6 ltr     Kw-hr    Low   High
  ---------------------------------------------------------------------------------------------------------
  CC-R1                   25.04           1      0.00    683.00    683.00     3.695     69.42    0.0   19.9
  CC-R2                   22.26           1      0.00    683.00    683.00     3.283     61.59    0.0   22.4
  CC-S1                   52.85           1      0.00    200.00    200.00     2.283     14.89    0.0    0.0
  CC-S2                   27.83           1      0.00    200.00    200.00     1.202      7.71    0.0    0.0
  JK-R1                   13.91           5      0.00    679.74   1000.00     1.998     11.95    0.0    0.0
  JK-R2                   13.91           5      0.00    679.74   1000.00     1.998     11.95    0.0    0.0
  JK-S                    13.91           5      0.00    266.63    300.00     0.799     16.10    0.0    0.0
  XR-1                    97.21           1      0.00     95.00     95.00     1.995      8.80    0.0    0.0
  XR-2                    91.94           1      0.00     95.00     95.00     1.887      7.97    0.0    0.0
  XR-3                     0.00           0      0.00      0.00      0.00     0.000      0.00    0.0    0.0
  XR-4                     0.00           0      0.00      0.00      0.00     0.000      0.00    0.0    0.0
  

  Analysis begun on:  Wed Aug 24 17:03:03 2022
  Analysis ended on:  Wed Aug 24 17:03:07 2022
  Total elapsed time: 00:00:04