
  EPA STORM WATER MANAGEMENT MODEL - VERSION 5.1 (Build 5.3.0.dev0)
  --------------------------------------------------------------

  WARNING 04: minimum elevation drop used for Conduit WS02004404WS02004405
  WARNING 03: negative offset ignored for Link YS02001904YS02001907
  
  *********************************************************
  NOTE: The summary statistics displayed in this report are
  based on results found at every computational time step,  
  not just on results from each reporting time step.
  *********************************************************
  
  ****************
  Analysis Options
  ****************
  Flow Units ............... LPS
  Process Models:
    Rainfall/Runoff ........ YES
    RDII ................... NO
    Snowmelt ............... NO
    Groundwater ............ NO
    Flow Routing ........... YES
    Ponding Allowed ........ NO
    Water Quality .......... NO
  Infiltration Method ...... HORTON
  Flow Routing Method ...... DYNWAVE
  Surcharge Method ......... EXTRAN
  Starting Date ............ 01/01/2000 00:00:00
  Ending Date .............. 01/01/2000 06:00:00
  Antecedent Dry Days ...... 8.0
  Report Time Step ......... 00:01:00
  Wet Time Step ............ 00:01:00
  Dry Time Step ............ 00:01:00
  Routing Time Step ........ 30.00 sec
  Variable Time Step ....... YES
  Maximum Trials ........... 8
  Number of Threads ........ 4
  Head Tolerance ........... 0.001500 m
  
  
  **************************        Volume         Depth
  Runoff Quantity Continuity     hectare-m            mm
  **************************     ---------       -------
  Total Precipitation ......         4.640        76.590
  Evaporation Loss .........         0.000         0.000
  Infiltration Loss ........         0.247         4.069
  Surface Runoff ...........         4.328        71.452
  Final Storage ............         0.066         1.085
  Continuity Error (%) .....        -0.021
  
  
  **************************        Volume        Volume
  Flow Routing Continuity        hectare-m      10^6 ltr
  **************************     ---------     ---------
  Dry Weather Inflow .......         0.472         4.722
  Wet Weather Inflow .......         4.329        43.292
  Groundwater Inflow .......         0.000         0.000
  RDII Inflow ..............         0.000         0.000
  External Inflow ..........         0.078         0.784
  External Outflow .........         2.985        29.846
  Flooding Loss ............         2.206        22.059
  Evaporation Loss .........         0.000         0.000
  Exfiltration Loss ........         0.000         0.000
  Initial Stored Volume ....         0.303         3.031
  Final Stored Volume ......         0.173         1.726
  Continuity Error (%) .....        -3.480
  
  
  *************************
  Highest Continuity Errors
  *************************
  Node JK-storage (-32.73%)
  Node YS02001884 (5.22%)
  Node YS02001583 (-4.71%)
  Node CC-storage (-2.14%)
  Node HS02004842 (1.52%)
  
  
  ***************************
  Time-Step Critical Elements
  ***************************
  Link WS02006252WS02006251 (47.21%)
  Link WS02006238WS02006235 (18.42%)
  Link WS02006280WS02006229 (9.56%)
  Link WS02003066WSF200 (6.67%)
  Link YS02001793JiankangQianchi (4.77%)
  
  
  ********************************
  Highest Flow Instability Indexes
  ********************************
  Link WS02006113WS02006111 (40)
  Link WS02006111WS02006112 (22)
  Link WS02004404WS02004405 (20)
  Link WS02006238WS02006235 (20)
  Link WS02004403WS02004404 (17)
  
  
  *************************
  Routing Time Step Summary
  *************************
  Minimum Time Step           :     0.11 sec
  Average Time Step           :     1.40 sec
  Maximum Time Step           :     4.91 sec
  Percent in Steady State     :    -0.00
  Average Iterations per Step :     3.09
  Percent Not Converging      :     9.83
  
  
  ***************************
  Subcatchment Runoff Summary
  ***************************
  
  ------------------------------------------------------------------------------------------------------------------------------
                            Total      Total      Total      Total     Imperv       Perv      Total       Total     Peak  Runoff
                           Precip      Runon       Evap      Infil     Runoff     Runoff     Runoff      Runoff   Runoff   Coeff
  Subcatchment                 mm         mm         mm         mm         mm         mm         mm    10^6 ltr      LPS
  ------------------------------------------------------------------------------------------------------------------------------
  sub0                      76.59       0.00       0.00       1.02      69.98       4.34      74.32        0.06    40.79   0.970
  sub1                      76.59       0.00       0.00       1.74      66.86       6.68      73.54        0.49   291.97   0.960
  sub10                     76.59       0.00       0.00       1.23      69.13       4.90      74.03        0.82   495.51   0.967
  sub11                     76.59       0.00       0.00       1.21      69.17       4.92      74.09        0.86   544.58   0.967
  sub12                     76.59       0.00       0.00       1.97      65.45       7.99      73.44        0.64   428.76   0.959
  sub14                     76.59       0.00       0.00       1.38      68.40       5.51      73.91        0.70   436.89   0.965
  sub15                     76.59       0.00       0.00       5.42      52.61      17.56      70.17        1.21   692.45   0.916
  sub16                     76.59       0.00       0.00       5.60      50.40      19.68      70.07        0.73   458.98   0.915
  sub17                     76.59       0.00       0.00       5.46      51.14      19.05      70.19        0.60   373.52   0.916
  sub2                      76.59       0.00       0.00       7.76      47.29      20.58      67.87        0.63   307.26   0.886
  sub22                     76.59       0.00       0.00       8.23      42.86      24.71      67.57        4.27  2336.02   0.882
  sub23                     76.59       0.00       0.00       6.70      47.37      21.64      69.01        3.29  1916.58   0.901
  sub3                      76.59       0.00       0.00       8.13      47.21      19.89      67.10        1.51   660.80   0.876
  sub4                      76.59       0.00       0.00       1.95      66.54       6.48      73.02        1.52   718.61   0.953
  sub5                      76.59       0.00       0.00       1.07      69.87       4.29      74.16        0.84   501.98   0.968
  sub60                     76.59       0.00       0.00       1.85      66.17       7.34      73.51        0.97   617.39   0.960
  sub61                     76.59       0.00       0.00       2.69      62.42      10.34      72.75        1.34   858.19   0.950
  sub62                     76.59       0.00       0.00       1.23      69.12       4.89      74.01        2.03  1216.76   0.966
  sub63                     76.59       0.00       0.00       4.97      53.39      17.24      70.63        1.60   981.41   0.922
  sub64                     76.59       0.00       0.00       2.51      63.83       8.98      72.81        1.75  1000.79   0.951
  sub65                     76.59       0.00       0.00       2.17      65.29       7.79      73.08        2.01  1118.44   0.954
  sub66                     76.59       0.00       0.00       6.18      53.18      16.04      69.22        3.23  1474.97   0.904
  sub67                     76.59       0.00       0.00       1.19      69.20       4.94      74.15        1.38   911.97   0.968
  sub68                     76.59       0.00       0.00       2.23      64.64       8.50      73.14        2.01  1246.58   0.955
  sub69                     76.59       0.00       0.00       2.00      64.90       9.49      74.39        2.75  1485.60   0.971
  sub7                      76.59       0.00       0.00       1.36      68.43       5.54      73.97        0.25   160.41   0.966
  sub70                     76.59       0.00       0.00       6.71      50.24      19.33      69.58        2.01   846.55   0.908
  sub71                     76.59       0.00       0.00       1.27      69.04       4.86      73.90        1.93  1079.40   0.965
  sub72                     76.59       0.00       0.00       1.13      69.67       4.23      73.91        1.02   522.77   0.965
  sub8                      76.59       0.00       0.00       1.37      68.41       5.52      73.93        0.47   296.44   0.965
  sub9                      76.59       0.00       0.00       1.38      68.40       5.52      73.92        0.36   221.83   0.965
  
  
  ******************
  Node Depth Summary
  ******************
  
  ---------------------------------------------------------------------------------
                                 Average  Maximum  Maximum  Time of Max    Reported
                                   Depth    Depth      HGL   Occurrence   Max Depth
  Node                 Type       Meters   Meters   Meters  days hr:min      Meters
  ---------------------------------------------------------------------------------
  HS02004478           JUNCTION     0.20     1.59    10.82     0  02:07        1.58
  HS02004479           JUNCTION     0.27     1.71    10.91     0  02:02        1.67
  HS02004480           JUNCTION     0.24     1.68    10.93     0  02:02        1.64
  HS02004770           JUNCTION     0.24     1.42    11.25     0  01:58        1.42
  HS02004777           JUNCTION     0.26     1.48    11.28     0  01:58        1.46
  HS02004785           JUNCTION     0.17     1.44    11.35     0  01:58        1.35
  HS02004788           JUNCTION     0.14     1.42    11.32     0  01:58        1.36
  HS02004792           JUNCTION     0.19     1.60    11.12     0  01:58        1.60
  HS02004799           JUNCTION     0.30     1.76    10.97     0  02:02        1.76
  HS02004802           JUNCTION     0.29     1.80    10.93     0  02:06        1.80
  HS02004807           JUNCTION     0.27     1.92    11.09     0  02:06        1.92
  HS02004817           JUNCTION     0.54     2.41    11.26     0  02:08        2.41
  HS02004824           JUNCTION     0.16     2.01    11.41     0  02:08        2.01
  HS02004830           JUNCTION     0.16     1.99    11.46     0  02:09        1.99
  HS02004837           JUNCTION     0.14     1.92    11.50     0  02:10        1.91
  HS02004842           JUNCTION     0.41     2.22    11.49     0  02:01        2.22
  HS02004848           JUNCTION     0.12     2.07    11.67     0  02:01        1.90
  HS02004852           JUNCTION     0.12     2.12    11.63     0  02:01        1.96
  HS02004856           JUNCTION     0.17     2.07    11.50     0  02:01        2.02
  HS02004862           JUNCTION     0.14     2.00    11.38     0  02:07        2.00
  HS02004870           JUNCTION     0.13     2.01    11.30     0  02:10        2.01
  HS02004876           JUNCTION     0.17     2.10    11.13     0  02:10        2.10
  HS02004881           JUNCTION     0.11     1.85    10.88     0  02:09        1.84
  HS02004901           JUNCTION     0.25     1.42    11.24     0  01:58        1.42
  WS02001211           JUNCTION     0.61     0.82     5.66     0  02:13        0.82
  WS02001212           JUNCTION     0.36     0.58     5.64     0  02:12        0.58
  WS02001213           JUNCTION     0.58     0.88     5.64     0  02:12        0.88
  WS02003059           JUNCTION     0.64     0.95     5.63     0  02:11        0.95
  WS02003060           JUNCTION     0.39     0.69     5.63     0  02:11        0.69
  WS02003066           JUNCTION     0.24     0.46     6.01     0  02:10        0.46
  WS02003067           JUNCTION     0.57     0.89     6.21     0  02:10        0.89
  WS02003069           JUNCTION     0.43     0.79     5.37     0  02:12        0.79
  WS02003072           JUNCTION     0.49     0.82     5.19     0  02:12        0.82
  WS02003073           JUNCTION     0.29     0.52     4.59     0  02:13        0.52
  WS02004138           JUNCTION     0.13     0.14     7.39     0  00:32        0.14
  WS02004139           JUNCTION     0.55     0.75     5.66     0  02:13        0.75
  WS02004401           JUNCTION     0.78     1.94     7.94     0  02:10        1.93
  WS02004402           JUNCTION     0.80     1.88     7.84     0  02:09        1.88
  WS02004403           JUNCTION     0.80     1.80     7.73     0  02:09        1.79
  WS02004404           JUNCTION     0.86     1.81     7.66     0  02:10        1.79
  WS02004405           JUNCTION     0.85     1.76     7.61     0  02:10        1.75
  WS02004406           JUNCTION     0.84     1.63     7.46     0  02:10        1.63
  WS02004407           JUNCTION     0.28     0.98     7.30     0  02:10        0.98
  WS02004409           JUNCTION     0.57     1.42     7.19     0  02:10        1.41
  WS02004410           JUNCTION     0.57     1.32     7.04     0  02:10        1.31
  WS02004411           JUNCTION     0.57     1.23     6.91     0  02:09        1.23
  WS02004412           JUNCTION     0.57     1.12     6.76     0  02:10        1.12
  WS02004413           JUNCTION     0.70     1.16     6.63     0  02:10        1.15
  WS02006109           JUNCTION     1.00     2.64     9.26     0  01:58        2.64
  WS02006110           JUNCTION     0.94     2.42     9.00     0  02:10        2.42
  WS02006111           JUNCTION     0.43     1.82     8.53     0  02:09        1.82
  WS02006112           JUNCTION     1.00     2.47     8.36     0  02:09        2.46
  WS02006113           JUNCTION     0.52     1.87     8.77     0  02:09        1.87
  WS02006115           JUNCTION     0.71     2.05     8.19     0  02:10        2.04
  WS02006116           JUNCTION     0.78     2.04     8.08     0  02:09        2.04
  WS02006228           JUNCTION     1.05     3.03     9.68     0  02:02        3.02
  WS02006229           JUNCTION     1.06     3.24     9.93     0  02:02        3.21
  WS02006230           JUNCTION     1.00     2.65     9.39     0  01:54        2.65
  WS02006231           JUNCTION     0.73     2.19     9.31     0  02:37        2.19
  WS02006232           JUNCTION     0.83     2.18     9.22     0  01:54        2.18
  WS02006234           JUNCTION     0.73     1.96     9.12     0  01:53        1.96
  WS02006235           JUNCTION     0.74     1.95     9.11     0  02:00        1.93
  WS02006238           JUNCTION     0.77     1.97     9.11     0  03:10        1.93
  WS02006239           JUNCTION     0.72     1.85     9.06     0  03:10        1.78
  WS02006240           JUNCTION     0.67     1.89     9.18     0  01:32        1.62
  WS02006242           JUNCTION     0.72     1.55     8.82     0  01:32        1.55
  WS02006243           JUNCTION     0.60     1.48     8.90     0  01:32        1.37
  WS02006245           JUNCTION     0.58     1.56     9.04     0  01:32        1.27
  WS02006247           JUNCTION     0.60     1.47     8.97     0  01:32        1.23
  WS02006248           JUNCTION     0.54     1.10     8.69     0  01:32        1.10
  WS02006249           JUNCTION     0.56     1.09     8.69     0  01:32        1.09
  WS02006251           JUNCTION     0.63     2.16     9.83     0  02:10        2.15
  WS02006252           JUNCTION     0.44     1.50     9.74     0  00:10        1.50
  WS02006253           JUNCTION     0.70     3.13    10.77     0  02:09        3.12
  WS02006256           JUNCTION     1.00     2.35     9.28     0  00:06        2.35
  WS02006280           JUNCTION     0.27     1.76    10.03     0  02:02        1.74
  WS02006284           JUNCTION     0.51     1.96    10.36     0  02:02        1.94
  WS02006287           JUNCTION     0.26     1.74    10.69     0  02:16        1.73
  WSF200               JUNCTION     0.24     0.53     5.76     0  02:11        0.53
  YS02001580           JUNCTION     0.08     1.05     9.59     0  01:57        0.77
  YS02001583           JUNCTION     0.11     1.14     9.64     0  01:57        0.82
  YS02001586           JUNCTION     0.18     1.13     9.30     0  01:57        1.13
  YS02001590           JUNCTION     0.27     1.40     9.26     0  01:57        1.37
  YS02001593           JUNCTION     0.21     1.33     9.19     0  01:57        1.28
  YS02001596           JUNCTION     0.29     1.69     9.10     0  01:57        1.65
  YS02001600           JUNCTION     0.36     1.87     9.00     0  01:57        1.86
  YS02001601           JUNCTION     0.53     2.06     8.90     0  01:56        2.06
  YS02001602           JUNCTION     0.46     1.87     8.77     0  01:57        1.87
  YS02001605           JUNCTION     0.43     1.78     8.68     0  02:07        1.77
  YS02001607           JUNCTION     0.41     1.65     8.49     0  02:04        1.65
  YS02001610           JUNCTION     0.45     1.68     8.48     0  01:57        1.68
  YS02001613           JUNCTION     0.41     1.66     8.50     0  02:09        1.66
  YS02001616           JUNCTION     0.36     1.61     8.52     0  02:07        1.60
  YS02001619           JUNCTION     0.34     1.61     8.54     0  02:06        1.61
  YS02001622           JUNCTION     0.33     1.58     8.48     0  02:10        1.57
  YS02001625           JUNCTION     0.54     1.78     8.38     0  02:01        1.78
  YS02001629           JUNCTION     0.47     1.85     8.40     0  02:03        1.85
  YS02001633           JUNCTION     0.54     2.00     8.46     0  02:05        1.99
  YS02001641           JUNCTION     0.52     1.95     8.39     0  02:05        1.94
  YS02001644           JUNCTION     0.52     1.92     8.35     0  02:05        1.92
  YS02001647           JUNCTION     0.35     1.74     8.35     0  02:06        1.73
  YS02001649           JUNCTION     0.43     1.96     8.35     0  02:06        1.95
  YS02001652           JUNCTION     0.32     1.81     8.41     0  02:06        1.78
  YS02001655           JUNCTION     0.22     1.62     8.47     0  02:06        1.58
  YS02001658           JUNCTION     0.14     1.47     8.61     0  02:05        1.35
  YS02001661           JUNCTION     0.13     1.20     8.61     0  02:06        1.13
  YS02001664           JUNCTION     0.05     0.56     8.49     0  02:10        0.56
  YS02001745           JUNCTION     0.06     0.84     8.36     0  02:06        0.79
  YS02001748           JUNCTION     0.14     1.34     8.42     0  02:06        1.22
  YS02001751           JUNCTION     0.19     1.60     8.47     0  02:04        1.39
  YS02001754           JUNCTION     0.30     1.65     8.26     0  02:06        1.64
  YS02001757           JUNCTION     0.48     1.97     8.23     0  02:06        1.96
  YS02001759           JUNCTION     0.42     1.98     8.35     0  02:10        1.98
  YS02001762           JUNCTION     0.41     1.96     8.36     0  02:09        1.95
  YS02001765           JUNCTION     0.39     1.93     8.38     0  02:06        1.92
  YS02001767           JUNCTION     0.38     1.91     8.40     0  02:06        1.90
  YS02001770           JUNCTION     0.38     1.95     8.44     0  02:06        1.93
  YS02001774           JUNCTION     0.43     1.99     8.41     0  02:06        1.98
  YS02001779           JUNCTION     0.27     1.68     8.37     0  02:03        1.68
  YS02001783           JUNCTION     0.23     2.29     8.43     0  02:07        1.49
  YS02001784           JUNCTION     0.25     2.29     8.36     0  02:07        1.43
  YS02001786           JUNCTION     0.21     2.23     8.26     0  02:07        1.28
  YS02001788           JUNCTION     0.16     2.28     8.26     0  02:07        1.13
  YS02001790           JUNCTION     0.20     1.96     7.60     0  02:07        1.30
  YS02001791           JUNCTION     0.15     1.57     7.04     0  02:07        1.28
  YS02001793           JUNCTION     0.15     1.86     6.69     0  02:07        1.80
  YS02001882           JUNCTION     0.27     1.66     8.37     0  02:06        1.65
  YS02001884           JUNCTION     0.34     1.75     8.37     0  02:06        1.74
  YS02001887           JUNCTION     0.42     1.83     8.37     0  02:06        1.83
  YS02001890           JUNCTION     0.44     1.81     8.32     0  02:02        1.81
  YS02001895           JUNCTION     0.24     1.57     8.31     0  02:06        1.56
  YS02001898           JUNCTION     0.25     1.56     8.30     0  02:10        1.56
  YS02001901           JUNCTION     0.34     1.68     8.29     0  02:06        1.67
  YS02001904           JUNCTION     0.33     1.64     8.27     0  02:10        1.63
  YS02001907           JUNCTION     0.61     1.96     8.25     0  02:02        1.96
  YS02001910           JUNCTION     0.43     1.97     8.48     0  02:02        1.95
  YS02001915           JUNCTION     0.28     1.92     8.64     0  02:02        1.90
  YS02001918           JUNCTION     0.15     1.81     8.88     0  02:02        1.81
  YS02001920           JUNCTION     0.23     2.08     9.09     0  02:02        1.89
  YS02001923           JUNCTION     0.11     1.99     9.25     0  02:02        1.66
  YS02001926           JUNCTION     0.15     1.90     9.35     0  02:02        1.49
  YS02001929           JUNCTION     0.08     1.78     9.47     0  02:02        1.26
  YS02006553           JUNCTION     0.61     2.16     8.45     0  02:07        1.98
  YS02006556           JUNCTION     0.58     2.37     8.69     0  02:07        1.95
  YS02006558           JUNCTION     0.63     2.50     8.77     0  02:07        2.00
  YS02006561           JUNCTION     0.14     1.77     8.43     0  02:07        1.11
  YS02163301           JUNCTION     0.49     1.92     8.43     0  02:05        1.90
  YS02163601           JUNCTION     0.57     2.03     8.43     0  02:05        2.01
  YS02164001           JUNCTION     0.51     1.95     8.41     0  02:05        1.93
  YSB1154              JUNCTION     0.39     1.97    11.03     0  02:10        1.97
  YSB1171              JUNCTION     0.52     1.95    10.85     0  01:59        1.95
  YSB1174              JUNCTION     0.35     1.83    10.94     0  02:07        1.82
  YSB6556              JUNCTION     0.30     1.77    10.94     0  01:59        1.76
  CC-1                 OUTFALL      0.00     0.00     0.00     0  00:00        0.00
  CC-2                 OUTFALL      0.00     0.00     0.00     0  00:00        0.00
  JK-1                 OUTFALL      0.00     0.00     0.00     0  00:00        0.00
  JK-2                 OUTFALL      0.00     0.00     0.00     0  00:00        0.00
  WSC                  OUTFALL      0.29     0.52     1.19     0  02:13        0.52
  CC-storage           STORAGE      0.75     1.92     7.42     0  03:10        1.92
  JK-storage           STORAGE      0.57     5.80     6.60     0  02:07        5.80
  XR-storage           STORAGE      7.59     8.66     6.66     0  06:00        8.66
  
  
  *******************
  Node Inflow Summary
  *******************
  
  -------------------------------------------------------------------------------------------------
                                  Maximum  Maximum                  Lateral       Total        Flow
                                  Lateral    Total  Time of Max      Inflow      Inflow     Balance
                                   Inflow   Inflow   Occurrence      Volume      Volume       Error
  Node                 Type           LPS      LPS  days hr:min    10^6 ltr    10^6 ltr     Percent
  -------------------------------------------------------------------------------------------------
  HS02004478           JUNCTION      0.00  2307.14     0  02:06           0        9.62      -0.008
  HS02004479           JUNCTION      0.00   408.85     0  02:01           0       0.956       0.080
  HS02004480           JUNCTION      0.00  2071.34     0  02:01           0        7.13       0.022
  HS02004770           JUNCTION   1916.58  1916.58     0  02:10        3.29        3.54       0.078
  HS02004777           JUNCTION      0.03   703.98     0  01:58    0.000648        2.04       0.264
  HS02004785           JUNCTION      0.15   723.42     0  01:58     0.00324        2.03       0.027
  HS02004788           JUNCTION    694.12   887.55     0  01:58        1.24        3.28       0.004
  HS02004792           JUNCTION   2336.30  3202.59     0  02:10        4.27        7.55       0.000
  HS02004799           JUNCTION    436.89  1722.50     0  02:00       0.704        6.51       0.045
  HS02004802           JUNCTION      0.00  1233.71     0  02:12           0        2.69       0.154
  HS02004807           JUNCTION    544.58  1739.76     0  02:10       0.861        2.96       0.136
  HS02004817           JUNCTION      0.60  1197.13     0  02:14       0.013        2.15       0.780
  HS02004824           JUNCTION    718.66  1293.03     0  02:10        1.52        2.41       0.015
  HS02004830           JUNCTION      0.15   576.01     0  02:10     0.00324        1.12       0.101
  HS02004837           JUNCTION    501.86   789.64     0  02:01       0.954        1.45       0.019
  HS02004842           JUNCTION      0.00   791.87     0  02:01           0       0.853       1.543
  HS02004848           JUNCTION    660.80  1052.93     0  02:01        1.51        2.13      -0.034
  HS02004852           JUNCTION      0.00  1016.85     0  02:01           0        1.91      -0.015
  HS02004856           JUNCTION    221.83  1082.22     0  02:01       0.356        2.27       0.042
  HS02004862           JUNCTION    307.46  1161.45     0  02:01       0.637         2.9       0.020
  HS02004870           JUNCTION    296.44  1253.98     0  02:15       0.473        3.36       0.015
  HS02004876           JUNCTION    291.97  1511.45     0  02:12       0.489        3.85       0.029
  HS02004881           JUNCTION    160.41  1661.48     0  02:10       0.249         4.1       0.012
  HS02004901           JUNCTION    458.98   723.44     0  02:10       0.734        1.15       0.145
  WS02001211           JUNCTION      7.35   204.09     0  03:17       0.159        4.02       0.829
  WS02001212           JUNCTION      0.00   209.69     0  03:18           0        3.98       0.388
  WS02001213           JUNCTION      0.00   214.58     0  03:19           0        3.97       0.462
  WS02003059           JUNCTION      0.00   220.73     0  03:19           0        3.96       0.820
  WS02003060           JUNCTION     16.53  1531.40     0  02:11       0.357        14.4       0.107
  WS02003066           JUNCTION      0.00  1332.10     0  02:10           0        10.1       0.019
  WS02003067           JUNCTION      0.00  1331.91     0  02:10           0        10.1       0.047
  WS02003069           JUNCTION      0.32  1531.08     0  02:11     0.00691        14.4       0.114
  WS02003072           JUNCTION      0.00  1530.67     0  02:12           0        14.4       0.153
  WS02003073           JUNCTION      1.82  1532.52     0  02:12      0.0393        14.4       0.161
  WS02004138           JUNCTION      0.00   190.00     0  00:29           0        3.88       0.077
  WS02004139           JUNCTION      0.32   190.32     0  00:32     0.00693        3.89       0.690
  WS02004401           JUNCTION      0.00  1334.10     0  02:10           0        10.2       0.112
  WS02004402           JUNCTION      0.00  1333.42     0  02:10           0        10.2       0.112
  WS02004403           JUNCTION      0.00  1333.71     0  02:09           0        10.2       0.108
  WS02004404           JUNCTION      0.16  1334.93     0  02:10      0.0035        10.2       0.096
  WS02004405           JUNCTION      0.04  1335.53     0  02:10    0.000823        10.2       0.125
  WS02004406           JUNCTION      0.00  1334.13     0  02:10           0        10.2       0.220
  WS02004407           JUNCTION      0.00  1333.76     0  02:10           0        10.2       0.019
  WS02004409           JUNCTION      0.00  1331.48     0  02:10           0        10.2       0.044
  WS02004410           JUNCTION      0.00  1331.81     0  02:10           0        10.2       0.062
  WS02004411           JUNCTION      0.00  1331.85     0  02:10           0        10.1       0.071
  WS02004412           JUNCTION      0.00  1331.79     0  02:10           0        10.1       0.090
  WS02004413           JUNCTION      0.00  1331.86     0  02:10           0        10.1       0.160
  WS02006109           JUNCTION      1.23  1290.03     0  02:07      0.0266          10       0.038
  WS02006110           JUNCTION      0.00  1123.58     0  02:31           0        9.68       0.102
  WS02006111           JUNCTION      0.00  1124.03     0  02:31           0        9.67       0.009
  WS02006112           JUNCTION    373.52  1333.83     0  02:10       0.602        10.3       0.208
  WS02006113           JUNCTION      0.00  1123.68     0  02:31           0        9.67       0.030
  WS02006115           JUNCTION      0.00  1333.85     0  02:10           0        10.2       0.083
  WS02006116           JUNCTION      0.00  1334.07     0  02:09           0        10.2       0.032
  WS02006228           JUNCTION      0.00  1289.47     0  02:07           0          10       0.015
  WS02006229           JUNCTION      0.00  2308.11     0  02:07           0        12.8       0.068
  WS02006230           JUNCTION     10.28  1027.60     0  02:07       0.222        5.98       0.118
  WS02006231           JUNCTION      0.00   531.86     0  04:20           0        4.64       0.003
  WS02006232           JUNCTION      0.00   530.39     0  04:20           0        4.64       0.160
  WS02006234           JUNCTION      0.00   525.36     0  04:20           0        4.64      -0.031
  WS02006235           JUNCTION      0.00   526.23     0  04:20           0         4.5       0.105
  WS02006238           JUNCTION      0.00   415.99     0  02:09           0        4.29      -0.370
  WS02006239           JUNCTION      0.00   415.24     0  02:02           0        4.28      -0.340
  WS02006240           JUNCTION      0.00   414.97     0  02:02           0        4.28      -0.030
  WS02006242           JUNCTION      0.00   415.17     0  02:02           0        4.28       0.065
  WS02006243           JUNCTION      0.00   441.07     0  01:32           0        3.85      -0.458
  WS02006245           JUNCTION      0.00   464.28     0  01:32           0        3.86       0.442
  WS02006247           JUNCTION      0.00   465.74     0  01:32           0        3.87       0.079
  WS02006248           JUNCTION      0.00   481.95     0  01:32           0        4.15      -0.037
  WS02006249           JUNCTION      0.00  1377.83     0  02:10           0        7.11       0.199
  WS02006251           JUNCTION      0.08  1702.64     0  02:10     0.00166        7.38       0.006
  WS02006252           JUNCTION      0.00   725.27     0  02:10           0        3.57      -0.126
  WS02006253           JUNCTION     40.79  1702.55     0  02:10      0.0602        4.22       0.049
  WS02006256           JUNCTION      0.00   300.00     0  02:00           0       0.561       0.024
  WS02006280           JUNCTION      0.00  2306.70     0  02:07           0         9.6       0.001
  WS02006284           JUNCTION      0.10  2306.69     0  02:07     0.00207        9.61       0.007
  WS02006287           JUNCTION      0.00  2307.51     0  02:06           0         9.6       0.007
  WSF200               JUNCTION      0.00  1332.24     0  02:10           0        10.1       0.009
  YS02001580           JUNCTION      0.00    75.22     0  01:57           0     0.00412      -1.012
  YS02001583           JUNCTION      0.00   140.47     0  01:57           0      0.0154      -4.502
  YS02001586           JUNCTION    846.55   846.78     0  02:15        2.01        2.02       0.052
  YS02001590           JUNCTION      0.00   318.04     0  02:09           0        1.48      -0.001
  YS02001593           JUNCTION      0.00   318.07     0  02:28           0        1.48       0.004
  YS02001596           JUNCTION      0.00   318.02     0  02:13           0        1.48      -0.012
  YS02001600           JUNCTION      0.00   318.05     0  02:12           0        1.48       0.011
  YS02001601           JUNCTION   1485.60  1803.14     0  02:10        2.75        4.23       0.024
  YS02001602           JUNCTION      0.00   502.21     0  01:56           0        2.47       0.035
  YS02001605           JUNCTION      0.00   501.80     0  01:56           0        2.33       0.046
  YS02001607           JUNCTION      0.00   501.21     0  01:56           0        2.33       0.102
  YS02001610           JUNCTION      0.00   833.99     0  02:14           0         2.7       0.097
  YS02001613           JUNCTION      0.00   502.88     0  01:56           0        2.14       0.097
  YS02001616           JUNCTION      0.00   501.31     0  01:56           0        2.14       0.036
  YS02001619           JUNCTION   1474.97  1474.97     0  02:15        3.23           5       0.004
  YS02001622           JUNCTION      0.00  1003.29     0  02:10           0        4.62       0.010
  YS02001625           JUNCTION      0.00  1427.51     0  02:15           0         4.9       0.294
  YS02001629           JUNCTION      0.00   934.35     0  02:01           0        3.77      -0.044
  YS02001633           JUNCTION   1118.64  1386.23     0  02:01        2.02        5.46       0.072
  YS02001641           JUNCTION      0.00  1389.12     0  02:01           0        5.13       0.059
  YS02001644           JUNCTION   1000.83  1803.52     0  02:01        1.75        6.87       0.053
  YS02001647           JUNCTION      0.00  1804.75     0  02:01           0        6.38      -0.003
  YS02001649           JUNCTION      0.00  2062.54     0  02:01           0        7.99       0.009
  YS02001652           JUNCTION      0.00   989.72     0  02:10           0        1.61      -0.062
  YS02001655           JUNCTION      0.15   988.94     0  02:10     0.00332        1.61      -0.135
  YS02001658           JUNCTION      0.00   989.49     0  02:10           0        1.61      -0.038
  YS02001661           JUNCTION      0.00   986.63     0  02:10           0        1.61       0.012
  YS02001664           JUNCTION    981.41   981.41     0  02:10         1.6         1.6      -0.007
  YS02001745           JUNCTION    617.39   617.39     0  02:10       0.966       0.966       0.176
  YS02001748           JUNCTION      0.04   629.82     0  02:10    0.000972       0.968      -0.291
  YS02001751           JUNCTION      0.01   632.88     0  02:10    0.000238       0.972       0.083
  YS02001754           JUNCTION      0.26   632.84     0  02:10     0.00562       0.977      -0.147
  YS02001757           JUNCTION      0.00  3582.65     0  02:10           0        12.1       0.025
  YS02001759           JUNCTION    858.23  1466.74     0  02:10        1.34        3.14      -0.008
  YS02001762           JUNCTION      0.00   793.28     0  02:06           0        1.81      -0.015
  YS02001765           JUNCTION      0.00   794.33     0  02:06           0        1.81      -0.014
  YS02001767           JUNCTION      0.54   794.21     0  02:06      0.0116        1.81      -0.009
  YS02001770           JUNCTION   1216.91  1216.91     0  02:10        2.03        2.08      -0.016
  YS02001774           JUNCTION      0.00   611.89     0  02:10           0       0.317       0.336
  YS02001779           JUNCTION      0.01   613.25     0  02:10    0.000108       0.265      -0.163
  YS02001783           JUNCTION      0.00  1164.67     0  02:07           0        4.25       0.001
  YS02001784           JUNCTION      1.06  1166.11     0  02:07      0.0229        4.27       0.011
  YS02001786           JUNCTION      0.06  1166.51     0  02:07     0.00122        4.28       0.016
  YS02001788           JUNCTION      0.07  1167.86     0  02:07     0.00153        4.28       0.004
  YS02001790           JUNCTION      0.15  1169.58     0  02:06     0.00335        4.28       0.006
  YS02001791           JUNCTION      0.00  1295.57     0  02:05           0        4.28      -0.011
  YS02001793           JUNCTION      0.00  1232.03     0  02:04           0        4.28      -0.011
  YS02001882           JUNCTION      0.00    42.01     0  02:00           0       0.013       4.660
  YS02001884           JUNCTION      0.00    47.58     0  01:58           0      0.0489       5.509
  YS02001887           JUNCTION    912.42   912.42     0  02:10        1.39        1.42       0.317
  YS02001890           JUNCTION      0.00   912.03     0  02:10           0        1.38       0.375
  YS02001895           JUNCTION      0.00   518.07     0  02:15           0        1.22       0.137
  YS02001898           JUNCTION      0.00   518.09     0  02:15           0        1.22       0.013
  YS02001901           JUNCTION      0.00   518.04     0  02:16           0        1.22       0.274
  YS02001904           JUNCTION      0.00   517.77     0  02:12           0        1.23       0.225
  YS02001907           JUNCTION      0.00  2378.01     0  02:10           0         4.3       0.413
  YS02001910           JUNCTION      0.00  1604.33     0  02:10           0        3.01       0.242
  YS02001915           JUNCTION   1079.42  1603.77     0  02:10        1.93        3.04       0.055
  YS02001918           JUNCTION      0.00   541.19     0  02:10           0        1.13       0.007
  YS02001920           JUNCTION      2.87   541.05     0  02:10       0.062        1.12       0.099
  YS02001923           JUNCTION      0.04   535.90     0  02:10    0.000814        1.04      -0.044
  YS02001926           JUNCTION      0.05   534.44     0  02:10     0.00113        1.03       0.033
  YS02001929           JUNCTION    522.77   522.77     0  02:10        1.02        1.02      -0.070
  YS02006553           JUNCTION      0.00   720.52     0  02:36           0         2.4       0.496
  YS02006556           JUNCTION      0.00   721.15     0  02:36           0         2.4       0.319
  YS02006558           JUNCTION   1247.46  1247.46     0  02:10        2.03        4.35       0.084
  YS02006561           JUNCTION      0.00  1165.76     0  02:07           0        4.25      -0.005
  YS02163301           JUNCTION      0.00   934.17     0  02:01           0        3.77       0.048
  YS02163601           JUNCTION      0.11  1386.91     0  02:01     0.00238        5.13       0.106
  YS02164001           JUNCTION      0.00  1387.94     0  02:01           0        5.13       0.044
  YSB1154              JUNCTION    501.98   501.98     0  02:10        0.84       0.841       0.185
  YSB1171              JUNCTION      0.00  1166.50     0  02:10           0        1.66       0.379
  YSB1174              JUNCTION    428.76   428.76     0  02:10       0.642       0.642       0.193
  YSB6556              JUNCTION      0.00   501.75     0  02:10           0       0.842       0.127
  CC-1                 OUTFALL       0.00   683.00     0  00:10           0        8.11       0.000
  CC-2                 OUTFALL       0.00   683.00     0  00:50           0        3.16       0.000
  JK-1                 OUTFALL       0.00  1000.00     0  00:00           0        2.45       0.000
  JK-2                 OUTFALL       0.00  1000.00     0  00:00           0        1.77       0.000
  WSC                  OUTFALL       0.00  1532.53     0  02:13           0        14.4       0.000
  CC-storage           STORAGE       0.00  3583.26     0  02:10           0        14.3      -2.095
  JK-storage           STORAGE       0.00  1363.97     0  02:40           0        4.43     -24.660
  XR-storage           STORAGE     200.00   200.00     0  00:00        4.32        4.92       0.001
  
  
  **********************
  Node Surcharge Summary
  **********************
  
  Surcharging occurs when water rises above the top of the highest conduit.
  ---------------------------------------------------------------------
                                               Max. Height   Min. Depth
                                   Hours       Above Crown    Below Rim
  Node                 Type      Surcharged         Meters       Meters
  ---------------------------------------------------------------------
  HS02004478           JUNCTION        0.60          0.668        0.272
  HS02004479           JUNCTION        0.73          0.909        0.141
  HS02004480           JUNCTION        0.77          0.975        0.125
  HS02004770           JUNCTION        0.67          0.720        0.000
  HS02004777           JUNCTION        0.68          0.780        0.000
  HS02004785           JUNCTION        0.63          0.745        0.045
  HS02004788           JUNCTION        0.61          0.720        0.000
  HS02004792           JUNCTION        0.74          0.900        0.000
  HS02004799           JUNCTION        0.88          1.060        0.000
  HS02004802           JUNCTION        0.79          1.094        0.116
  HS02004807           JUNCTION        0.77          1.220        0.000
  HS02004817           JUNCTION        1.41          1.713        0.027
  HS02004824           JUNCTION        0.62          1.310        0.000
  HS02004830           JUNCTION        0.59          1.291        0.039
  HS02004837           JUNCTION        0.55          1.217        0.123
  HS02004842           JUNCTION        0.69          1.520        0.000
  HS02004848           JUNCTION        0.50          1.370        0.000
  HS02004852           JUNCTION        0.53          1.420        0.000
  HS02004856           JUNCTION        0.52          1.300        0.000
  HS02004862           JUNCTION        0.56          1.300        0.000
  HS02004870           JUNCTION        0.58          1.314        0.086
  HS02004876           JUNCTION        0.66          1.402        0.158
  HS02004881           JUNCTION        0.63          1.150        0.300
  HS02004901           JUNCTION        0.68          0.720        0.000
  WS02004401           JUNCTION        1.68          0.944        0.716
  WS02004402           JUNCTION        1.71          0.876        0.864
  WS02004403           JUNCTION        1.71          0.795        1.235
  WS02004404           JUNCTION        1.78          0.807        1.973
  WS02004405           JUNCTION        1.77          0.757        2.043
  WS02004406           JUNCTION        1.75          0.635        1.815
  WS02004409           JUNCTION        1.18          0.419        1.941
  WS02004410           JUNCTION        1.10          0.321        2.219
  WS02004411           JUNCTION        1.01          0.228        2.302
  WS02004412           JUNCTION        0.91          0.120        2.190
  WS02004413           JUNCTION        1.48          0.155        2.045
  WS02006109           JUNCTION        2.32          1.820        0.000
  WS02006110           JUNCTION        1.86          1.508        0.342
  WS02006111           JUNCTION        1.45          1.009        0.861
  WS02006112           JUNCTION        1.90          1.474        0.206
  WS02006113           JUNCTION        1.46          1.073        0.857
  WS02006115           JUNCTION        1.64          1.039        1.211
  WS02006116           JUNCTION        1.65          0.978        1.312
  WS02006228           JUNCTION        2.28          2.200        0.000
  WS02006229           JUNCTION        1.05          1.056        0.014
  WS02006230           JUNCTION        1.76          1.570        0.000
  WS02006231           JUNCTION        1.78          1.479        0.051
  WS02006232           JUNCTION        2.31          1.480        0.000
  WS02006234           JUNCTION        1.82          1.240        0.000
  WS02006235           JUNCTION        1.99          1.235        0.055
  WS02006238           JUNCTION        2.09          1.245        0.185
  WS02006239           JUNCTION        1.97          1.112        0.178
  WS02006240           JUNCTION        1.96          1.181        0.209
  WS02006242           JUNCTION        2.24          0.820        0.000
  WS02006243           JUNCTION        1.94          0.770        0.000
  WS02006245           JUNCTION        1.91          0.850        0.000
  WS02006247           JUNCTION        1.95          0.760        0.000
  WS02006248           JUNCTION        1.85          0.380        0.000
  WS02006249           JUNCTION        1.90          0.390        0.000
  WS02006251           JUNCTION        1.57          1.128        0.052
  WS02006252           JUNCTION        2.65          1.100        0.000
  WS02006253           JUNCTION        1.59          2.091        0.389
  WS02006256           JUNCTION        5.89          2.050        0.000
  WS02006280           JUNCTION        0.90          0.710        0.070
  WS02006284           JUNCTION        0.81          0.682        0.118
  WS02006287           JUNCTION        0.70          0.739        0.151
  YS02001580           JUNCTION        0.74          0.450        0.000
  YS02001583           JUNCTION        0.75          0.500        0.000
  YS02001586           JUNCTION        0.90          0.510        0.000
  YS02001590           JUNCTION        1.00          0.750        0.000
  YS02001593           JUNCTION        1.00          0.709        0.131
  YS02001596           JUNCTION        1.15          0.956        0.114
  YS02001600           JUNCTION        1.31          1.190        0.000
  YS02001601           JUNCTION        1.71          1.440        0.000
  YS02001602           JUNCTION        1.61          1.270        0.000
  YS02001605           JUNCTION        1.57          1.180        0.000
  YS02001607           JUNCTION        1.04          0.645        0.035
  YS02001610           JUNCTION        1.08          0.680        0.000
  YS02001613           JUNCTION        1.03          0.662        0.038
  YS02001616           JUNCTION        0.98          0.610        0.000
  YS02001619           JUNCTION        0.96          0.610        0.000
  YS02001622           JUNCTION        0.97          0.579        0.041
  YS02001625           JUNCTION        1.19          0.780        0.000
  YS02001629           JUNCTION        0.90          0.470        0.000
  YS02001633           JUNCTION        1.33          0.985        0.075
  YS02001641           JUNCTION        1.31          0.948        0.152
  YS02001644           JUNCTION        1.29          0.920        0.000
  YS02001647           JUNCTION        0.92          0.740        0.160
  YS02001649           JUNCTION        1.23          0.957        0.093
  YS02001652           JUNCTION        0.81          0.783        0.347
  YS02001655           JUNCTION        0.50          0.615        0.585
  YS02001658           JUNCTION        0.26          0.471        0.829
  YS02001661           JUNCTION        0.05          0.132        1.258
  YS02001748           JUNCTION        0.16          0.263        0.927
  YS02001751           JUNCTION        0.31          0.595        0.605
  YS02001754           JUNCTION        0.58          0.602        0.548
  YS02001757           JUNCTION        1.33          0.967        0.243
  YS02001759           JUNCTION        1.22          0.983        0.227
  YS02001762           JUNCTION        1.19          0.961        0.189
  YS02001765           JUNCTION        1.09          0.929        0.171
  YS02001767           JUNCTION        0.96          0.914        0.116
  YS02001770           JUNCTION        0.92          0.920        0.000
  YS02001774           JUNCTION        1.17          0.991        0.059
  YS02001779           JUNCTION        0.57          0.680        0.000
  YS02001783           JUNCTION        0.68          1.492        0.108
  YS02001784           JUNCTION        0.66          1.490        0.000
  YS02001786           JUNCTION        0.59          1.430        0.000
  YS02001788           JUNCTION        0.46          1.480        0.000
  YS02001790           JUNCTION        0.52          1.157        0.000
  YS02001791           JUNCTION        0.52          0.767        1.153
  YS02001793           JUNCTION        0.56          0.858        1.742
  YS02001882           JUNCTION        0.61          0.657        0.173
  YS02001884           JUNCTION        0.62          0.694        0.176
  YS02001887           JUNCTION        0.66          0.784        0.166
  YS02001890           JUNCTION        0.67          0.760        0.000
  YS02001895           JUNCTION        0.60          0.567        0.183
  YS02001898           JUNCTION        0.59          0.533        0.207
  YS02001901           JUNCTION        0.64          0.677        0.193
  YS02001904           JUNCTION        0.63          0.639        0.211
  YS02001907           JUNCTION        0.91          0.950        0.000
  YS02001910           JUNCTION        0.70          0.969        0.131
  YS02001915           JUNCTION        0.61          0.918        0.082
  YS02001918           JUNCTION        0.52          0.810        0.000
  YS02001920           JUNCTION        0.54          1.079        0.061
  YS02001923           JUNCTION        0.18          0.781        0.039
  YS02001926           JUNCTION        0.20          0.900        0.000
  YS02001929           JUNCTION        0.01          0.780        0.000
  YS02006553           JUNCTION        0.93          1.161        0.029
  YS02006556           JUNCTION        0.80          1.334        0.016
  YS02006558           JUNCTION        0.78          1.400        0.000
  YS02006561           JUNCTION        0.53          0.974        0.176
  YS02163301           JUNCTION        1.25          0.918        0.112
  YS02163601           JUNCTION        1.40          1.027        0.053
  YS02164001           JUNCTION        1.29          0.947        0.153
  YSB1154              JUNCTION        1.03          1.272        0.128
  YSB1171              JUNCTION        1.04          1.100        0.000
  YSB1174              JUNCTION        0.93          1.135        0.115
  YSB6556              JUNCTION        0.85          1.066        0.034
  
  
  *********************
  Node Flooding Summary
  *********************
  
  Flooding refers to all water that overflows a node, whether it ponds or not.
  --------------------------------------------------------------------------
                                                             Total   Maximum
                                 Maximum   Time of Max       Flood    Ponded
                        Hours       Rate    Occurrence      Volume     Depth
  Node                 Flooded       LPS   days hr:min    10^6 ltr    Meters
  --------------------------------------------------------------------------
  HS02004770              0.47   1479.57      0  02:10       1.088     0.000
  HS02004777              0.01      6.16      0  01:58       0.000     0.000
  HS02004788              0.01    257.33      0  01:58       0.001     0.000
  HS02004792              0.45   2059.72      0  02:10       1.741     0.000
  HS02004799              0.27    273.82      0  02:10       0.153     0.000
  HS02004807              0.18    507.52      0  02:10       0.223     0.000
  HS02004824              0.12     97.25      0  02:10       0.030     0.000
  HS02004842              0.08    140.31      0  02:01       0.014     0.000
  HS02004848              0.01    292.28      0  02:01       0.001     0.000
  HS02004852              0.01     72.78      0  02:01       0.000     0.000
  HS02004856              0.01    169.43      0  02:01       0.000     0.000
  HS02004862              0.07    116.16      0  02:10       0.013     0.000
  HS02004901              0.55    723.21      0  02:10       0.900     0.000
  WS02006109              0.51    328.39      0  02:10       0.342     0.000
  WS02006228              0.01      2.68      0  02:02       0.000     0.000
  WS02006230              0.82    574.63      0  02:07       1.163     0.000
  WS02006232              0.21      0.77      0  02:12       0.000     0.000
  WS02006234              0.86    128.20      0  02:08       0.248     0.000
  WS02006242              0.96    137.50      0  02:09       0.416     0.000
  WS02006243              0.01     57.98      0  01:32       0.000     0.000
  WS02006245              0.01     70.35      0  01:32       0.000     0.000
  WS02006247              0.01     54.98      0  01:32       0.000     0.000
  WS02006248              1.31    339.40      0  01:56       1.362     0.000
  WS02006249              1.60   1316.88      0  02:10       4.033     0.000
  WS02006252              0.42    724.89      0  02:10       0.418     0.000
  WS02006256              0.37    296.47      0  02:00       0.262     0.000
  YS02001580              0.01     51.91      0  01:57       0.000     0.000
  YS02001583              0.01     64.87      0  01:57       0.000     0.000
  YS02001586              0.59    529.00      0  02:15       0.534     0.000
  YS02001590              0.01      6.92      0  01:57       0.000     0.000
  YS02001600              0.01      1.84      0  01:57       0.000     0.000
  YS02001601              0.82   1405.06      0  02:10       1.758     0.000
  YS02001602              0.67     62.04      0  02:33       0.137     0.000
  YS02001610              0.59    833.67      0  02:14       0.933     0.000
  YS02001616              0.01      1.19      0  02:07       0.000     0.000
  YS02001619              0.01      2.30      0  02:06       0.000     0.000
  YS02001625              0.56   1427.36      0  02:15       1.436     0.000
  YS02001629              0.18    170.51      0  02:07       0.056     0.000
  YS02001644              0.22   1074.20      0  02:10       0.485     0.000
  YS02001770              0.01      2.00      0  02:06       0.000     0.000
  YS02001779              0.19    612.60      0  02:10       0.239     0.000
  YS02001784              0.01      5.17      0  02:07       0.000     0.000
  YS02001786              0.01      6.83      0  02:07       0.000     0.000
  YS02001788              0.01    148.65      0  02:07       0.000     0.000
  YS02001790              0.01     47.67      0  02:07       0.000     0.000
  YS02001890              0.21    396.14      0  02:10       0.153     0.000
  YS02001907              0.47   2377.80      0  02:10       1.957     0.000
  YS02001918              0.01     67.11      0  02:02       0.000     0.000
  YS02001926              0.01     40.00      0  02:02       0.000     0.000
  YS02001929              0.01    263.28      0  02:02       0.001     0.000
  YS02006558              0.01      7.36      0  02:07       0.000     0.000
  YSB1171                 0.36   1166.07      0  02:10       0.870     0.000
  JK-storage              0.38    970.17      0  02:20       1.088     0.000
  
  
  **********************
  Storage Volume Summary
  **********************
  
  --------------------------------------------------------------------------------------------------
                         Average     Avg  Evap Exfil       Maximum     Max    Time of Max    Maximum
                          Volume    Pcnt  Pcnt  Pcnt        Volume    Pcnt     Occurrence    Outflow
  Storage Unit           1000 m3    Full  Loss  Loss       1000 m3    Full    days hr:min        LPS
  --------------------------------------------------------------------------------------------------
  CC-storage               2.103      33     0     0         5.353      84       0  03:10    1766.00
  JK-storage               0.029      10     0     0         0.291     100       0  02:07    2300.00
  XR-storage               0.910      63     0     0         1.039      72       0  06:00     190.00
  
  
  ***********************
  Outfall Loading Summary
  ***********************
  
  -----------------------------------------------------------
                         Flow       Avg       Max       Total
                         Freq      Flow      Flow      Volume
  Outfall Node           Pcnt       LPS       LPS    10^6 ltr
  -----------------------------------------------------------
  CC-1                  77.28    555.70    683.00       8.108
  CC-2                  30.38    502.05    683.00       3.162
  JK-1                  73.06    150.28   1000.00       2.453
  JK-2                  55.12    156.38   1000.00       1.772
  WSC                   99.97    618.22   1532.53      14.351
  -----------------------------------------------------------
  System                67.16   1982.62   4538.14      29.846
  
  
  ********************
  Link Flow Summary
  ********************
  
  -----------------------------------------------------------------------------
                                 Maximum  Time of Max   Maximum    Max/    Max/
                                  |Flow|   Occurrence   |Veloc|    Full    Full
  Link                 Type          LPS  days hr:min     m/sec    Flow   Depth
  -----------------------------------------------------------------------------
  1                    CONDUIT   1532.53     0  02:13      3.71    0.53    0.52
  HS02004478WS02006287 CONDUIT   2307.51     0  02:06      2.61    0.65    1.00
  HS02004479HS02004480 CONDUIT    407.77     0  02:01      0.58    0.39    1.00
  HS02004480HS02004478 CONDUIT   2068.70     0  02:01      2.96    8.71    1.00
  HS02004770HS02004777 CONDUIT    703.95     0  01:58      1.01    1.29    1.00
  HS02004777HS02004785 CONDUIT    723.27     0  01:58      1.09    0.89    1.00
  HS02004785HS02004788 CONDUIT    680.52     0  01:58      1.34    5.13    1.00
  HS02004788HS02004792 CONDUIT    866.28     0  02:10      1.45    0.57    1.00
  HS02004792HS02004799 CONDUIT   1567.40     0  01:59      2.24    0.96    1.00
  HS02004799HS02004480 CONDUIT   1721.82     0  02:00      2.46    2.18    1.00
  HS02004802HS02004478 CONDUIT   1234.36     0  02:12      1.76    1.09    1.00
  HS02004807HS02004802 CONDUIT   1233.71     0  02:12      1.76    2.36    1.00
  HS02004817HS02004807 CONDUIT   1197.13     0  02:14      1.71    0.71    1.00
  HS02004817HS02004824 CONDUIT   1196.53     0  02:14      1.71    0.54    1.00
  HS02004824HS02004830 CONDUIT    575.99     0  02:10      0.83    0.75    1.00
  HS02004830HS02004837 CONDUIT    575.86     0  02:10      0.91    0.57    1.00
  HS02004837HS02004842 CONDUIT    791.87     0  02:01      1.13    0.47    1.00
  HS02004842HS02004848 CONDUIT    791.31     0  02:01      1.16    0.46    1.00
  HS02004848HS02004852 CONDUIT   1016.85     0  02:01      1.54    1.15    1.00
  HS02004852HS02004856 CONDUIT    989.00     0  02:01      1.44    1.13    1.00
  HS02004856HS02004862 CONDUIT   1042.59     0  02:01      1.67    1.04    1.00
  HS02004862HS02004870 CONDUIT   1092.76     0  02:01      1.87    1.18    1.00
  HS02004870HS02004876 CONDUIT   1254.52     0  02:15      1.79    0.83    1.00
  HS02004876HS02004881 CONDUIT   1511.92     0  02:12      2.52   16.08    1.00
  HS02004881HS02006253 CONDUIT   1661.76     0  02:10      2.37    0.32    1.00
  HS02004901HS02004770 CONDUIT    265.79     0  02:26      0.38    1.00    1.00
  WS02001211WS02001212 CONDUIT    209.69     0  03:18      0.54    0.16    0.70
  WS02001212WS02001213 CONDUIT    214.58     0  03:19      1.04    0.33    0.57
  WS02001213WS02003059 CONDUIT    220.73     0  03:19      0.46    0.36    0.90
  WS02003059WS02003060 CONDUIT    227.61     0  03:19      0.64    0.15    0.82
  WS02003060WS02003069 CONDUIT   1530.76     0  02:11      2.09    0.60    0.62
  WS02003066WSF200     CONDUIT   1332.24     0  02:10      3.26    0.23    0.39
  WS02003067WS02003066 CONDUIT   1332.10     0  02:10      2.03    0.43    0.56
  WS02003069WS02003072 CONDUIT   1530.67     0  02:12      1.90    0.74    0.67
  WS02003072WS02003073 CONDUIT   1530.70     0  02:12      2.07    3.31    0.62
  WS02004138WS02004139 CONDUIT    190.00     0  00:32      2.18    0.04    0.42
  WS02004139WS02001211 CONDUIT    196.75     0  03:17      0.55    0.25    0.61
  WS02004401WS02004402 CONDUIT   1333.42     0  02:10      1.70    1.60    1.00
  WS02004402WS02004403 CONDUIT   1333.71     0  02:09      1.70    1.92    1.00
  WS02004403WS02004404 CONDUIT   1334.76     0  02:10      1.70    0.96    1.00
  WS02004404WS02004405 CONDUIT   1335.49     0  02:10      1.70   13.08    1.00
  WS02004405WS02004406 CONDUIT   1334.13     0  02:10      1.70    2.63    1.00
  WS02004406WS02004407 CONDUIT   1333.76     0  02:10      1.70    0.60    0.99
  WS02004407WS02004409 CONDUIT   1331.48     0  02:10      1.85    0.47    0.99
  WS02004409WS02004410 CONDUIT   1331.81     0  02:10      1.70    1.72    1.00
  WS02004410WS02004411 CONDUIT   1331.85     0  02:10      1.70    1.82    1.00
  WS02004411WS02004412 CONDUIT   1331.79     0  02:10      1.70    1.89    1.00
  WS02004412WS02004413 CONDUIT   1331.86     0  02:10      1.70    0.89    1.00
  WS02004413WS02003067 CONDUIT   1331.91     0  02:10      2.05    0.57    0.77
  WS02006109WS02006110 CONDUIT   1123.58     0  02:31      2.24    2.16    1.00
  WS02006110WS02006113 CONDUIT   1123.68     0  02:31      2.24    1.02    1.00
  WS02006111WS02006112 CONDUIT   1124.70     0  02:31      2.24    0.53    1.00
  WS02006112WS02006115 CONDUIT   1333.85     0  02:10      1.70    0.79    1.00
  WS02006113WS02006111 CONDUIT   1124.03     0  02:31      2.72    1.35    1.00
  WS02006115WS02006116 CONDUIT   1334.07     0  02:09      1.70    1.71    1.00
  WS02006116WS02004401 CONDUIT   1334.10     0  02:10      1.70    1.84    1.00
  WS02006228WS02006109 CONDUIT   1288.80     0  02:07      2.56    5.63    1.00
  WS02006229WS02006228 CONDUIT   1289.47     0  02:07      2.57    4.27    1.00
  WS02006230WS02006229 CONDUIT   1017.32     0  02:07      2.64   22.64    1.00
  WS02006231WS02006230 CONDUIT    500.76     0  04:21      1.43    7.60    1.00
  WS02006232WS02006231 CONDUIT    531.86     0  04:20      1.41    1.11    1.00
  WS02006234WS02006232 CONDUIT    530.39     0  04:20      1.38    1.07    1.00
  WS02006235WS02006234 CONDUIT    525.36     0  04:20      1.37    5.54    1.00
  WS02006238WS02006235 CONDUIT    415.99     0  02:09      1.22    0.93    1.00
  WS02006239WS02006238 CONDUIT    415.24     0  02:02      1.08    1.33    1.00
  WS02006240WS02006239 CONDUIT    414.97     0  02:02      1.21    1.31    1.00
  WS02006242WS02006240 CONDUIT    415.17     0  02:02      1.09    1.65    1.00
  WS02006243WS02006242 CONDUIT    408.41     0  01:32      1.30    0.87    1.00
  WS02006245WS02006243 CONDUIT    441.07     0  01:32      1.36    1.30    1.00
  WS02006247WS02006245 CONDUIT    464.28     0  01:32      1.35    3.68    1.00
  WS02006248WS02006247 CONDUIT    465.74     0  01:32      1.41    1.01    1.00
  WS02006249WS02006248 CONDUIT    481.95     0  01:32      1.39    2.64    1.00
  WS02006251WS02006249 CONDUIT   1377.83     0  02:10      3.58    3.97    1.00
  WS02006252WS02006251 CONDUIT    417.94     0  03:00      5.32    1.53    1.00
  WS02006253WS02006251 CONDUIT   1702.56     0  02:10      4.42    5.11    1.00
  WS02006256WS02006235 CONDUIT    215.02     0  04:20      3.04    2.28    1.00
  WS02006280WS02006229 CONDUIT   2308.11     0  02:07      3.89    0.49    1.00
  WS02006284WS02006280 CONDUIT   2306.70     0  02:07      3.02    0.97    1.00
  WS02006287WS02006284 CONDUIT   2306.59     0  02:07      2.94    1.07    1.00
  WSF200WS02003060     CONDUIT   1332.14     0  02:11      2.30    0.30    0.51
  YS02001580YS02001583 CONDUIT     75.22     0  01:57      0.56    0.29    1.00
  YS02001583YS02001586 CONDUIT    140.47     0  01:57      0.59    0.21    1.00
  YS02001586YS02001590 CONDUIT    318.04     0  02:09      1.25    0.56    1.00
  YS02001590YS02001593 CONDUIT    318.07     0  02:28      1.12    2.00    1.00
  YS02001593YS02001596 CONDUIT    318.02     0  02:13      1.67    0.50    1.00
  YS02001596YS02001600 CONDUIT    318.05     0  02:12      1.17    0.62    1.00
  YS02001600YS02001601 CONDUIT    317.93     0  02:12      1.12    0.55    1.00
  YS02001601YS02001602 CONDUIT    502.21     0  01:56      1.78    1.81    1.00
  YS02001602YS02001605 CONDUIT    501.80     0  01:56      1.77   10.62    1.00
  YS02001605YS02001607 CONDUIT    501.21     0  01:56      1.77    2.75    1.00
  YS02001607YS02001610 CONDUIT    501.24     0  01:56      0.64    0.48    1.00
  YS02001610YS02001613 CONDUIT    502.88     0  01:56      0.64    0.58    1.00
  YS02001613YS02001616 CONDUIT    501.31     0  01:56      0.64    0.43    1.00
  YS02001616YS02001619 CONDUIT    497.78     0  02:14      0.67    0.86    1.00
  YS02001619YS02001622 CONDUIT   1003.29     0  02:10      1.28    1.48    1.00
  YS02001622YS02001625 CONDUIT   1003.96     0  02:10      1.28    0.54    1.00
  YS02001625YS02001629 CONDUIT    934.35     0  02:01      1.19    0.44    1.00
  YS02001629YS02163301 CONDUIT    934.17     0  02:01      1.19    1.15    1.00
  YS02001633YS02163601 CONDUIT   1386.80     0  02:01      1.77    1.46    1.00
  YS02001641YS02001644 CONDUIT   1389.94     0  02:01      1.77    4.49    1.00
  YS02001644YS02001647 CONDUIT   1804.75     0  02:01      2.30    1.06    1.00
  YS02001647YS02001649 CONDUIT   1799.81     0  02:02      2.31    0.95    1.00
  YS02001649YS02001757 CONDUIT   2052.39     0  02:01      2.61    1.25    1.00
  YS02001652YS02001649 CONDUIT    989.93     0  02:10      1.26    0.49    1.00
  YS02001655YS02001652 CONDUIT    989.72     0  02:10      1.26    0.48    1.00
  YS02001658YS02001655 CONDUIT    988.78     0  02:10      1.84    0.42    1.00
  YS02001661YS02001658 CONDUIT    989.49     0  02:10      2.32    0.39    1.00
  YS02001664YS02001661 CONDUIT    986.63     0  02:10      2.28    0.31    0.78
  YS02001745YS02001748 CONDUIT    629.77     0  02:10      2.17    0.24    0.92
  YS02001748YS02001751 CONDUIT    632.87     0  02:10      1.64    0.32    1.00
  YS02001751YS02001754 CONDUIT    632.58     0  02:10      1.34    0.30    1.00
  YS02001754YS02001757 CONDUIT    633.05     0  02:10      0.81    0.25    1.00
  YS02001757CaochengTiaoxuchi CONDUIT   3583.26     0  02:10      6.32    1.55    1.00
  YS02001759YS02001757 CONDUIT   1465.16     0  02:10      1.87    1.04    1.00
  YS02001762YS02001759 CONDUIT    790.67     0  02:06      1.01    0.91    1.00
  YS02001765YS02001762 CONDUIT    793.28     0  02:06      1.01    0.74    1.00
  YS02001767YS02001765 CONDUIT    794.33     0  02:06      1.01    1.00    1.00
  YS02001770YS02001767 CONDUIT    793.68     0  02:06      1.01    3.14    1.00
  YS02001774YS02001770 CONDUIT    611.89     0  02:10      0.78    0.39    1.00
  YS02001779YS02001774 CONDUIT    613.24     0  02:10      0.78    0.31    1.00
  YS02001783YS02001784 CONDUIT   1165.05     0  02:07      2.32    1.61    1.00
  YS02001784YS02001785 CONDUIT   1166.45     0  02:07      2.32    2.71    1.00
  YS02001786YS02001788 CONDUIT   1167.79     0  02:07      2.47    2.25    1.00
  YS02001788YS02001790 CONDUIT   1169.43     0  02:06      2.68    0.86    1.00
  YS02001790YS02001791 CONDUIT   1295.57     0  02:05      3.44    1.41    1.00
  YS02001791YS02001793 CONDUIT   1232.03     0  02:04      6.77    0.53    1.00
  YS02001793JiankangQianchi CONDUIT   1363.97     0  02:40     19.78    0.11    1.00
  YS02001882YS02001884 CONDUIT     42.01     0  02:00      0.14    0.05    1.00
  YS02001884YS02001887 CONDUIT     47.58     0  01:58      0.10    0.06    1.00
  YS02001887YS02001890 CONDUIT    912.03     0  02:10      1.16    1.56    1.00
  YS02001890YS02001895 CONDUIT    518.07     0  02:15      0.66    0.24    1.00
  YS02001895YS02001898 CONDUIT    518.09     0  02:15      0.66    0.90    1.00
  YS02001898YS02001901 CONDUIT    518.04     0  02:16      0.66    0.33    1.00
  YS02001901YS02001904 CONDUIT    517.77     0  02:12      0.66    0.80    1.00
  YS02001904YS02001907 CONDUIT    517.78     0  02:12      0.66    0.18    1.00
  YS02001907YS02006553 CONDUIT    720.52     0  02:36      0.80    0.85    1.00
  YS02001910YS02001907 CONDUIT   1604.36     0  02:10      2.04    0.90    1.00
  YS02001915YS02001910 CONDUIT   1604.33     0  02:10      2.04    0.80    1.00
  YS02001918YS02001915 CONDUIT    542.83     0  02:10      0.69    0.30    1.00
  YS02001920YS02001918 CONDUIT    541.19     0  02:10      0.69    0.52    1.00
  YS02001923YS02001920 CONDUIT    538.18     0  02:10      0.69    0.24    1.00
  YS02001926YS02001923 CONDUIT    535.86     0  02:10      0.94    0.77    1.00
  YS02001929YS02001926 CONDUIT    534.39     0  02:10      1.09    0.25    1.00
  YS02006553YS02006556 CONDUIT    721.15     0  02:36      0.92    0.62    1.00
  YS02006556YS02006558 CONDUIT    721.72     0  02:36      0.92    0.57    1.00
  YS02006558YS02006561 CONDUIT   1165.76     0  02:07      4.12    2.58    1.00
  YS02006561YS02001783 CONDUIT   1164.67     0  02:07      2.32    0.60    1.00
  YS02163301YS02001633 CONDUIT    933.39     0  02:01      1.19    0.88    1.00
  YS02163601YS02164001 CONDUIT   1387.94     0  02:01      1.77    1.23    1.00
  YS02164001YS02001641 CONDUIT   1389.12     0  02:01      1.77    1.90    1.00
  YSB1154YSB6556       CONDUIT    501.75     0  02:10      1.30    0.90    1.00
  YSB1171HS02004479    CONDUIT    408.85     0  02:01      0.81    0.27    1.00
  YSB1174YSB1171       CONDUIT    428.50     0  02:10      1.11    0.66    1.00
  YSB6556YSB1171       CONDUIT    502.69     0  02:10      1.31    0.52    1.00
  CC-R1                PUMP       683.00     0  00:10              1.00
  CC-R2                PUMP       683.00     0  00:50              1.00
  CC-S1                PUMP       200.00     0  00:00              1.00
  CC-S2                PUMP       200.00     0  00:10              1.00
  JK-R1                PUMP      1000.00     0  00:00              1.00
  JK-R2                PUMP      1000.00     0  00:00              1.00
  JK-S                 PUMP       300.00     0  02:00              1.00
  XR-1                 PUMP        95.00     0  00:10              1.00
  XR-2                 PUMP        95.00     0  00:29              1.00
  XR-3                 PUMP         0.00     0  00:00              0.00
  XR-4                 PUMP         0.00     0  00:00              0.00
  
  
  ***************************
  Flow Classification Summary
  ***************************
  
  -------------------------------------------------------------------------------------
                      Adjusted    ---------- Fraction of Time in Flow Class ---------- 
                       /Actual         Up    Down  Sub   Sup   Up    Down  Norm  Inlet 
  Conduit               Length    Dry  Dry   Dry   Crit  Crit  Crit  Crit  Ltd   Ctrl  
  -------------------------------------------------------------------------------------
  1                       1.00   0.00  0.00  0.00  0.00  1.00  0.00  0.00  0.57  0.00
  HS02004478WS02006287    1.00   0.26  0.00  0.00  0.50  0.24  0.00  0.00  0.44  0.00
  HS02004479HS02004480    1.00   0.07  0.00  0.00  0.93  0.00  0.00  0.00  0.15  0.00
  HS02004480HS02004478    1.00   0.24  0.00  0.00  0.42  0.00  0.00  0.33  0.00  0.00
  HS02004770HS02004777    1.00   0.00  0.24  0.00  0.76  0.00  0.00  0.00  0.03  0.00
  HS02004777HS02004785    1.00   0.00  0.00  0.00  1.00  0.00  0.00  0.00  0.15  0.00
  HS02004785HS02004788    1.00   0.00  0.00  0.00  1.00  0.00  0.00  0.00  0.00  0.00
  HS02004788HS02004792    1.00   0.00  0.00  0.00  0.97  0.03  0.00  0.00  0.85  0.00
  HS02004792HS02004799    1.00   0.00  0.00  0.00  0.97  0.03  0.00  0.00  0.78  0.00
  HS02004799HS02004480    1.00   0.01  0.06  0.00  0.74  0.00  0.19  0.00  0.00  0.00
  HS02004802HS02004478    1.00   0.24  0.00  0.00  0.75  0.00  0.00  0.00  0.03  0.00
  HS02004807HS02004802    1.00   0.24  0.00  0.00  0.75  0.00  0.00  0.01  0.00  0.00
  HS02004817HS02004807    1.00   0.00  0.24  0.00  0.76  0.00  0.00  0.00  0.02  0.00
  HS02004817HS02004824    1.00   0.00  0.00  0.00  1.00  0.00  0.00  0.00  0.73  0.00
  HS02004824HS02004830    1.00   0.00  0.00  0.00  1.00  0.00  0.00  0.00  0.01  0.00
  HS02004830HS02004837    1.00   0.00  0.00  0.00  1.00  0.00  0.00  0.00  0.81  0.00
  HS02004837HS02004842    1.00   0.00  0.00  0.00  0.98  0.02  0.00  0.00  0.14  0.00
  HS02004842HS02004848    1.00   0.00  0.24  0.00  0.76  0.00  0.00  0.00  0.39  0.00
  HS02004848HS02004852    1.00   0.24  0.00  0.00  0.76  0.00  0.00  0.00  0.59  0.00
  HS02004852HS02004856    1.00   0.24  0.01  0.00  0.75  0.00  0.00  0.00  0.54  0.00
  HS02004856HS02004862    1.00   0.00  0.26  0.00  0.74  0.00  0.00  0.00  0.64  0.00
  HS02004862HS02004870    1.00   0.00  0.00  0.00  1.00  0.00  0.00  0.00  0.04  0.00
  HS02004870HS02004876    1.00   0.02  0.00  0.00  0.98  0.01  0.00  0.00  0.78  0.00
  HS02004876HS02004881    1.00   0.05  0.00  0.00  0.74  0.20  0.00  0.00  0.00  0.00
  HS02004881HS02006253    1.00   0.01  0.09  0.00  0.65  0.03  0.00  0.22  0.47  0.00
  HS02004901HS02004770    1.00   0.24  0.00  0.00  0.76  0.00  0.00  0.00  0.00  0.00
  WS02001211WS02001212    1.00   0.00  0.06  0.00  0.94  0.00  0.00  0.00  0.00  0.00
  WS02001212WS02001213    1.00   0.06  0.00  0.00  0.61  0.00  0.33  0.00  0.00  0.00
  WS02001213WS02003059    1.00   0.01  0.02  0.00  0.98  0.00  0.00  0.00  0.00  0.00
  WS02003059WS02003060    1.00   0.00  0.00  0.00  0.99  0.01  0.00  0.00  0.04  0.00
  WS02003060WS02003069    1.00   0.00  0.00  0.00  0.95  0.05  0.00  0.00  0.18  0.00
  WS02003066WSF200        1.00   0.11  0.00  0.00  0.00  0.89  0.00  0.00  0.56  0.00
  WS02003067WS02003066    1.00   0.11  0.00  0.00  0.89  0.00  0.00  0.00  0.00  0.00
  WS02003069WS02003072    1.00   0.00  0.00  0.00  0.99  0.01  0.00  0.00  0.25  0.00
  WS02003072WS02003073    1.00   0.00  0.00  0.00  0.00  0.00  0.00  1.00  0.00  0.00
  WS02004138WS02004139    1.00   0.05  0.01  0.00  0.94  0.01  0.00  0.00  0.97  0.00
  WS02004139WS02001211    1.00   0.00  0.02  0.00  0.98  0.00  0.00  0.00  0.00  0.00
  WS02004401WS02004402    1.00   0.07  0.00  0.00  0.93  0.00  0.00  0.00  0.00  0.00
  WS02004402WS02004403    1.00   0.07  0.00  0.00  0.93  0.00  0.00  0.00  0.00  0.00
  WS02004403WS02004404    1.00   0.00  0.07  0.00  0.93  0.00  0.00  0.00  0.00  0.00
  WS02004404WS02004405    1.00   0.00  0.00  0.00  1.00  0.00  0.00  0.00  0.01  0.00
  WS02004405WS02004406    1.00   0.00  0.00  0.00  1.00  0.00  0.00  0.00  0.01  0.00
  WS02004406WS02004407    1.00   0.00  0.08  0.00  0.91  0.00  0.00  0.00  0.00  0.00
  WS02004407WS02004409    1.00   0.09  0.00  0.00  0.89  0.02  0.00  0.00  0.73  0.00
  WS02004409WS02004410    1.00   0.09  0.00  0.00  0.91  0.00  0.00  0.00  0.00  0.00
  WS02004410WS02004411    1.00   0.09  0.00  0.00  0.91  0.00  0.00  0.00  0.00  0.00
  WS02004411WS02004412    1.00   0.09  0.00  0.00  0.91  0.00  0.00  0.00  0.00  0.00
  WS02004412WS02004413    1.00   0.10  0.00  0.00  0.90  0.00  0.00  0.00  0.00  0.00
  WS02004413WS02003067    1.00   0.10  0.01  0.00  0.00  0.00  0.89  0.00  0.00  0.00
  WS02006109WS02006110    1.00   0.00  0.03  0.00  0.94  0.00  0.03  0.00  0.00  0.00
  WS02006110WS02006113    1.00   0.03  0.03  0.00  0.94  0.00  0.00  0.00  0.00  0.00
  WS02006111WS02006112    1.00   0.06  0.00  0.00  0.93  0.00  0.00  0.00  0.67  0.00
  WS02006112WS02006115    1.00   0.06  0.00  0.00  0.93  0.00  0.00  0.00  0.00  0.00
  WS02006113WS02006111    1.00   0.06  0.00  0.00  0.23  0.71  0.00  0.00  0.20  0.00
  WS02006115WS02006116    1.00   0.07  0.00  0.00  0.92  0.00  0.00  0.01  0.00  0.00
  WS02006116WS02004401    1.00   0.07  0.00  0.00  0.93  0.00  0.00  0.00  0.00  0.00
  WS02006228WS02006109    1.00   0.00  0.00  0.00  1.00  0.00  0.00  0.00  0.01  0.00
  WS02006229WS02006228    1.00   0.00  0.00  0.00  0.97  0.00  0.00  0.03  0.00  0.00
  WS02006230WS02006229    1.00   0.00  0.00  0.00  0.94  0.00  0.00  0.06  0.00  0.00
  WS02006231WS02006230    1.00   0.04  0.00  0.00  0.61  0.00  0.34  0.00  0.00  0.00
  WS02006232WS02006231    1.00   0.03  0.01  0.00  0.95  0.00  0.01  0.00  0.00  0.00
  WS02006234WS02006232    1.00   0.03  0.00  0.00  0.96  0.01  0.00  0.00  0.00  0.00
  WS02006235WS02006234    1.00   0.03  0.00  0.00  0.94  0.00  0.03  0.00  0.00  0.00
  WS02006238WS02006235    1.00   0.02  0.01  0.00  0.97  0.00  0.00  0.00  0.00  0.00
  WS02006239WS02006238    1.00   0.02  0.00  0.00  0.97  0.00  0.00  0.01  0.01  0.00
  WS02006240WS02006239    1.00   0.02  0.00  0.00  0.92  0.00  0.00  0.07  0.03  0.00
  WS02006242WS02006240    1.00   0.01  0.01  0.00  0.96  0.00  0.02  0.00  0.00  0.00
  WS02006243WS02006242    1.00   0.01  0.00  0.00  0.97  0.00  0.00  0.02  0.21  0.00
  WS02006245WS02006243    1.00   0.01  0.00  0.00  0.93  0.00  0.00  0.07  0.01  0.00
  WS02006247WS02006245    1.00   0.00  0.00  0.00  0.97  0.00  0.00  0.03  0.00  0.00
  WS02006248WS02006247    1.00   0.00  0.00  0.00  0.98  0.00  0.00  0.01  0.23  0.00
  WS02006249WS02006248    1.00   0.00  0.00  0.00  0.85  0.00  0.14  0.00  0.00  0.00
  WS02006251WS02006249    1.00   0.00  0.00  0.00  1.00  0.00  0.00  0.00  0.23  0.00
  WS02006252WS02006251    1.00   0.02  0.07  0.00  0.23  0.00  0.68  0.00  0.00  0.00
  WS02006253WS02006251    1.00   0.00  0.00  0.00  1.00  0.00  0.00  0.00  0.00  0.00
  WS02006256WS02006235    1.00   0.03  0.00  0.00  0.97  0.01  0.00  0.00  0.00  0.00
  WS02006280WS02006229    1.00   0.25  0.00  0.00  0.20  0.03  0.00  0.52  0.01  0.00
  WS02006284WS02006280    1.00   0.25  0.00  0.00  0.13  0.01  0.00  0.61  0.00  0.00
  WS02006287WS02006284    1.00   0.22  0.03  0.00  0.35  0.39  0.00  0.00  0.53  0.00
  WSF200WS02003060        1.00   0.00  0.11  0.00  0.43  0.46  0.00  0.00  0.30  0.00
  YS02001580YS02001583    1.00   0.38  0.35  0.00  0.27  0.00  0.00  0.00  0.51  0.00
  YS02001583YS02001586    1.00   0.27  0.36  0.00  0.37  0.00  0.00  0.00  0.52  0.00
  YS02001586YS02001590    1.00   0.24  0.00  0.00  0.58  0.05  0.00  0.13  0.48  0.00
  YS02001590YS02001593    1.00   0.24  0.00  0.00  0.16  0.00  0.59  0.00  0.00  0.00
  YS02001593YS02001596    1.00   0.24  0.00  0.00  0.18  0.01  0.00  0.56  0.03  0.00
  YS02001596YS02001600    1.00   0.25  0.00  0.00  0.27  0.02  0.00  0.46  0.07  0.00
  YS02001600YS02001601    1.00   0.24  0.00  0.00  0.75  0.00  0.00  0.00  0.44  0.00
  YS02001601YS02001602    1.00   0.24  0.00  0.00  0.76  0.00  0.00  0.00  0.00  0.00
  YS02001602YS02001605    1.00   0.24  0.00  0.00  0.75  0.00  0.00  0.00  0.00  0.00
  YS02001605YS02001607    1.00   0.25  0.00  0.00  0.75  0.00  0.00  0.00  0.00  0.00
  YS02001607YS02001610    1.00   0.24  0.00  0.00  0.75  0.00  0.00  0.00  0.01  0.00
  YS02001610YS02001613    1.00   0.24  0.00  0.00  0.76  0.00  0.00  0.00  0.00  0.00
  YS02001613YS02001616    1.00   0.24  0.00  0.00  0.76  0.00  0.00  0.00  0.00  0.00
  YS02001616YS02001619    1.00   0.24  0.00  0.00  0.76  0.00  0.00  0.00  0.00  0.00
  YS02001619YS02001622    1.00   0.24  0.00  0.00  0.76  0.00  0.00  0.00  0.05  0.00
  YS02001622YS02001625    1.00   0.24  0.00  0.00  0.76  0.00  0.00  0.00  0.05  0.00
  YS02001625YS02001629    1.00   0.24  0.03  0.00  0.32  0.00  0.41  0.00  0.00  0.00
  YS02001629YS02163301    1.00   0.25  0.00  0.00  0.74  0.00  0.00  0.00  0.00  0.00
  YS02001633YS02163601    1.00   0.00  0.02  0.00  0.98  0.00  0.00  0.00  0.19  0.00
  YS02001641YS02001644    1.00   0.00  0.02  0.00  0.98  0.00  0.00  0.00  0.00  0.00
  YS02001644YS02001647    1.00   0.00  0.26  0.00  0.74  0.00  0.00  0.00  0.00  0.00
  YS02001647YS02001649    1.00   0.00  0.26  0.00  0.59  0.14  0.00  0.00  0.34  0.00
  YS02001649YS02001757    1.00   0.00  0.00  0.00  0.88  0.12  0.00  0.00  0.43  0.00
  YS02001652YS02001649    1.00   0.00  0.00  0.00  0.97  0.03  0.00  0.00  0.51  0.00
  YS02001655YS02001652    1.00   0.00  0.00  0.00  0.41  0.01  0.00  0.58  0.07  0.00
  YS02001658YS02001655    1.00   0.00  0.25  0.00  0.61  0.14  0.00  0.00  0.47  0.00
  YS02001661YS02001658    1.00   0.25  0.00  0.00  0.37  0.38  0.00  0.00  0.54  0.00
  YS02001664YS02001661    1.00   0.24  0.00  0.00  0.64  0.12  0.00  0.00  0.79  0.00
  YS02001745YS02001748    1.00   0.00  0.00  0.00  0.20  0.01  0.00  0.79  0.15  0.00
  YS02001748YS02001751    1.00   0.00  0.00  0.00  0.85  0.15  0.00  0.00  0.56  0.00
  YS02001751YS02001754    1.00   0.00  0.00  0.00  0.39  0.01  0.00  0.60  0.05  0.00
  YS02001754YS02001757    1.00   0.00  0.00  0.00  1.00  0.00  0.00  0.00  0.59  0.00
  YS02001757CaochengTiaoxuchi    1.00   0.00  0.00  0.00  0.71  0.29  0.00  0.00  0.26  0.00
  YS02001759YS02001757    1.00   0.00  0.00  0.00  1.00  0.00  0.00  0.00  0.45  0.00
  YS02001762YS02001759    1.00   0.00  0.00  0.00  1.00  0.00  0.00  0.00  0.04  0.00
  YS02001765YS02001762    1.00   0.00  0.00  0.00  1.00  0.00  0.00  0.00  0.45  0.00
  YS02001767YS02001765    1.00   0.00  0.00  0.00  1.00  0.00  0.00  0.00  0.00  0.00
  YS02001770YS02001767    1.00   0.00  0.00  0.00  1.00  0.00  0.00  0.00  0.00  0.00
  YS02001774YS02001770    1.00   0.01  0.24  0.00  0.76  0.00  0.00  0.00  0.03  0.00
  YS02001779YS02001774    1.00   0.00  0.00  0.00  1.00  0.00  0.00  0.00  0.54  0.00
  YS02001783YS02001784    1.00   0.00  0.27  0.00  0.73  0.00  0.00  0.00  0.40  0.00
  YS02001784YS02001785    1.00   0.00  0.00  0.00  1.00  0.00  0.00  0.00  0.21  0.00
  YS02001786YS02001788    1.00   0.00  0.00  0.00  0.71  0.29  0.00  0.00  0.00  0.00
  YS02001788YS02001790    1.00   0.00  0.00  0.00  0.36  0.64  0.00  0.00  0.72  0.00
  YS02001790YS02001791    1.00   0.00  0.00  0.00  0.10  0.90  0.00  0.00  0.20  0.00
  YS02001791YS02001793    1.00   0.00  0.00  0.00  0.07  0.93  0.00  0.00  0.00  0.00
  YS02001793JiankangQianchi    1.00   0.00  0.01  0.00  0.24  0.75  0.00  0.00  0.23  0.00
  YS02001882YS02001884    1.00   0.25  0.00  0.00  0.74  0.00  0.00  0.00  0.00  0.00
  YS02001884YS02001887    1.00   0.11  0.12  0.00  0.77  0.00  0.00  0.00  0.00  0.00
  YS02001887YS02001890    1.00   0.00  0.01  0.00  0.93  0.00  0.06  0.00  0.00  0.00
  YS02001890YS02001895    1.00   0.01  0.25  0.00  0.74  0.00  0.00  0.00  0.00  0.00
  YS02001895YS02001898    1.00   0.26  0.00  0.00  0.72  0.00  0.02  0.00  0.00  0.00
  YS02001898YS02001901    1.00   0.26  0.00  0.00  0.74  0.00  0.00  0.00  0.01  0.00
  YS02001901YS02001904    1.00   0.26  0.00  0.00  0.74  0.00  0.00  0.00  0.00  0.00
  YS02001904YS02001907    1.00   0.01  0.25  0.00  0.74  0.00  0.00  0.00  0.00  0.00
  YS02001907YS02006553    1.00   0.01  0.05  0.00  0.94  0.00  0.00  0.00  0.00  0.00
  YS02001910YS02001907    1.00   0.00  0.00  0.00  0.94  0.00  0.00  0.06  0.16  0.00
  YS02001915YS02001910    1.00   0.00  0.00  0.00  0.96  0.04  0.00  0.00  0.18  0.00
  YS02001918YS02001915    1.00   0.00  0.02  0.00  0.95  0.04  0.00  0.00  0.64  0.00
  YS02001920YS02001918    1.00   0.00  0.01  0.00  0.99  0.00  0.00  0.00  0.00  0.00
  YS02001923YS02001920    1.00   0.00  0.00  0.00  1.00  0.00  0.00  0.00  0.88  0.00
  YS02001926YS02001923    1.00   0.00  0.14  0.00  0.07  0.00  0.79  0.00  0.00  0.00
  YS02001929YS02001926    1.00   0.00  0.24  0.00  0.76  0.00  0.00  0.00  0.74  0.00
  YS02006553YS02006556    1.00   0.03  0.00  0.00  0.97  0.00  0.00  0.00  0.04  0.00
  YS02006556YS02006558    1.00   0.00  0.01  0.00  0.99  0.00  0.00  0.00  0.00  0.00
  YS02006558YS02006561    1.00   0.27  0.00  0.00  0.07  0.66  0.00  0.00  0.23  0.00
  YS02006561YS02001783    1.00   0.27  0.00  0.00  0.11  0.62  0.00  0.00  0.56  0.00
  YS02163301YS02001633    1.00   0.00  0.25  0.00  0.75  0.00  0.00  0.00  0.00  0.00
  YS02163601YS02164001    1.00   0.00  0.16  0.00  0.84  0.00  0.00  0.00  0.00  0.00
  YS02164001YS02001641    1.00   0.02  0.14  0.00  0.83  0.00  0.00  0.00  0.07  0.00
  YSB1154YSB6556          1.00   0.24  0.00  0.00  0.76  0.00  0.00  0.00  0.02  0.00
  YSB1171HS02004479       1.00   0.08  0.00  0.00  0.90  0.00  0.00  0.02  0.13  0.00
  YSB1174YSB1171          1.00   0.10  0.10  0.00  0.80  0.00  0.00  0.00  0.00  0.00
  YSB6556YSB1171          1.00   0.08  0.16  0.00  0.76  0.00  0.00  0.00  0.00  0.00
  
  
  *************************
  Conduit Surcharge Summary
  *************************
  
  ----------------------------------------------------------------------------
                                                           Hours        Hours 
                         --------- Hours Full --------   Above Full   Capacity
  Conduit                Both Ends  Upstream  Dnstream   Normal Flow   Limited
  ----------------------------------------------------------------------------
  HS02004478WS02006287        0.60      0.60      0.78      0.01         0.01
  HS02004479HS02004480        0.78      0.78      0.81      0.01         0.01
  HS02004480HS02004478        0.71      0.77      0.71      1.81         0.71
  HS02004770HS02004777        0.67      0.67      0.68      0.12         0.08
  HS02004777HS02004785        0.63      0.63      0.68      0.01         0.01
  HS02004785HS02004788        0.61      0.63      0.61      1.57         0.55
  HS02004788HS02004792        0.61      0.61      0.74      0.01         0.01
  HS02004792HS02004799        0.74      0.74      0.88      0.01         0.01
  HS02004799HS02004480        0.77      0.77      0.88      1.00         0.01
  HS02004802HS02004478        0.72      0.72      0.80      0.19         0.01
  HS02004807HS02004802        0.77      0.77      0.79      0.34         0.34
  HS02004817HS02004807        0.77      0.77      1.41      0.01         0.01
  HS02004817HS02004824        0.62      0.62      1.41      0.01         0.01
  HS02004824HS02004830        0.59      0.59      0.62      0.01         0.01
  HS02004830HS02004837        0.55      0.55      0.59      0.01         0.01
  HS02004837HS02004842        0.55      0.55      0.69      0.01         0.01
  HS02004842HS02004848        0.50      0.50      0.69      0.01         0.01
  HS02004848HS02004852        0.50      0.50      0.53      0.02         0.01
  HS02004852HS02004856        0.53      0.53      0.55      0.02         0.01
  HS02004856HS02004862        0.52      0.52      0.56      0.01         0.01
  HS02004862HS02004870        0.56      0.56      0.58      0.37         0.34
  HS02004870HS02004876        0.58      0.58      0.65      0.01         0.01
  HS02004876HS02004881        0.63      0.65      0.63      1.61         0.63
  HS02004881HS02006253        0.63      0.63      1.59      0.01         0.01
  HS02004901HS02004770        0.67      0.67      0.68      0.04         0.01
  WS02003072WS02003073        0.01      0.01      0.01      3.67         0.01
  WS02004401WS02004402        1.68      1.68      1.71      1.56         1.56
  WS02004402WS02004403        1.71      1.71      1.71      1.69         1.67
  WS02004403WS02004404        1.71      1.71      1.78      0.01         0.03
  WS02004404WS02004405        1.77      1.78      1.77      4.84         1.77
  WS02004405WS02004406        1.75      1.77      1.75      1.88         1.75
  WS02004406WS02004407        0.01      0.01      1.75      0.01         0.01
  WS02004407WS02004409        0.01      0.01      1.18      0.01         0.01
  WS02004409WS02004410        1.10      1.18      1.10      1.63         1.10
  WS02004410WS02004411        1.01      1.10      1.01      1.66         1.01
  WS02004411WS02004412        0.91      1.01      0.91      1.68         0.91
  WS02004412WS02004413        0.91      0.91      1.48      0.01         0.01
  WS02004413WS02003067        0.01      0.01      1.48      0.01         0.01
  WS02006109WS02006110        1.86      1.86      2.63      1.86         0.01
  WS02006110WS02006113        1.46      1.46      2.48      0.34         0.01
  WS02006111WS02006112        1.45      1.45      3.38      0.01         0.01
  WS02006112WS02006115        1.64      1.64      1.90      0.01         0.01
  WS02006113WS02006111        1.46      1.46      1.46      1.57         1.46
  WS02006115WS02006116        1.64      1.64      1.65      1.64         1.62
  WS02006116WS02004401        1.68      1.68      1.68      1.68         1.65
  WS02006228WS02006109        2.32      2.63      2.32      3.83         2.32
  WS02006229WS02006228        2.28      2.37      2.28      3.31         2.28
  WS02006230WS02006229        2.82      3.03      2.82      4.78         1.61
  WS02006231WS02006230        1.76      1.76      1.79      4.46         1.19
  WS02006232WS02006231        1.78      1.78      2.31      0.01         0.18
  WS02006234WS02006232        1.89      1.89      2.31      0.01         0.01
  WS02006235WS02006234        1.82      1.82      1.99      4.17         1.19
  WS02006238WS02006235        2.03      2.03      2.24      0.01         0.39
  WS02006239WS02006238        2.07      2.14      2.09      1.78         0.28
  WS02006240WS02006239        1.95      1.99      1.97      1.75         0.20
  WS02006242WS02006240        1.96      1.96      2.39      2.29         0.98
  WS02006243WS02006242        1.97      1.97      2.24      0.01         0.01
  WS02006245WS02006243        1.92      1.93      1.94      0.86         0.22
  WS02006247WS02006245        1.91      1.98      1.91      3.60         0.55
  WS02006248WS02006247        1.88      1.88      1.95      0.01         0.01
  WS02006249WS02006248        1.85      1.85      1.90      2.25         0.01
  WS02006251WS02006249        1.89      1.92      1.90      2.19         1.46
  WS02006252WS02006251        2.62      2.63      2.65      1.66         0.13
  WS02006253WS02006251        1.90      1.91      1.97      0.93         0.03
  WS02006256WS02006235        4.48      4.48      5.88      0.24         0.01
  WS02006280WS02006229        0.91      0.91      1.05      0.01         0.01
  WS02006284WS02006280        0.81      0.81      0.90      0.01         0.01
  WS02006287WS02006284        0.70      0.70      0.82      0.38         0.38
  YS02001580YS02001583        0.74      0.74      0.81      0.01         0.01
  YS02001583YS02001586        0.75      0.75      0.90      0.01         0.01
  YS02001586YS02001590        0.91      0.91      1.00      0.01         0.01
  YS02001590YS02001593        1.00      1.00      1.02      1.03         0.01
  YS02001593YS02001596        1.02      1.02      1.15      0.01         0.01
  YS02001596YS02001600        1.21      1.21      1.31      0.01         0.01
  YS02001600YS02001601        1.37      1.37      1.71      0.01         0.01
  YS02001601YS02001602        1.61      1.61      1.74      1.29         0.01
  YS02001602YS02001605        1.57      1.57      1.61      2.43         0.01
  YS02001605YS02001607        1.53      1.57      1.56      1.53         1.40
  YS02001607YS02001610        1.04      1.04      1.08      0.01         0.01
  YS02001610YS02001613        1.03      1.03      1.08      0.01         0.01
  YS02001613YS02001616        0.98      0.98      1.03      0.01         0.01
  YS02001616YS02001619        0.96      0.96      0.98      0.01         0.06
  YS02001619YS02001622        0.96      0.96      0.97      0.93         0.86
  YS02001622YS02001625        0.97      0.97      1.19      0.01         0.01
  YS02001625YS02001629        0.90      0.90      1.19      0.01         0.01
  YS02001629YS02163301        1.21      1.21      1.25      0.14         0.20
  YS02001633YS02163601        1.33      1.33      1.40      0.41         0.38
  YS02001641YS02001644        1.29      1.31      1.29      1.74         1.27
  YS02001644YS02001647        0.92      0.92      1.29      0.04         0.01
  YS02001647YS02001649        0.92      0.92      1.23      0.01         0.01
  YS02001649YS02001757        1.22      1.23      1.33      0.15         0.14
  YS02001652YS02001649        0.86      0.86      1.23      0.01         0.01
  YS02001655YS02001652        0.50      0.50      0.81      0.01         0.01
  YS02001658YS02001655        0.26      0.26      0.50      0.01         0.01
  YS02001661YS02001658        0.05      0.05      0.26      0.01         0.01
  YS02001664YS02001661        0.01      0.01      0.13      0.01         0.01
  YS02001745YS02001748        0.01      0.01      0.16      0.01         0.01
  YS02001748YS02001751        0.21      0.21      0.31      0.01         0.01
  YS02001751YS02001754        0.31      0.31      0.58      0.01         0.01
  YS02001754YS02001757        0.77      0.77      1.33      0.01         0.01
  YS02001757CaochengTiaoxuchi        1.11      1.33      2.14      0.48         0.20
  YS02001759YS02001757        1.22      1.22      1.33      0.07         0.09
  YS02001762YS02001759        1.19      1.19      1.22      0.01         0.03
  YS02001765YS02001762        1.09      1.09      1.19      0.01         0.01
  YS02001767YS02001765        0.96      0.96      1.09      0.01         0.05
  YS02001770YS02001767        0.96      0.96      0.96      0.62         0.55
  YS02001774YS02001770        0.92      0.92      1.17      0.01         0.01
  YS02001779YS02001774        0.57      0.57      1.17      0.01         0.01
  YS02001783YS02001784        0.66      0.68      0.66      0.83         0.66
  YS02001784YS02001785        0.59      0.66      0.59      1.11         0.59
  YS02001786YS02001788        0.46      0.59      0.46      0.94         0.46
  YS02001788YS02001790        0.46      0.46      0.52      0.01         0.01
  YS02001790YS02001791        0.52      0.52      0.52      0.65         0.50
  YS02001791YS02001793        0.52      0.52      0.57      0.01         0.01
  YS02001793JiankangQianchi        0.56      0.56      1.00      0.01         0.01
  YS02001882YS02001884        0.61      0.61      0.62      0.01         0.01
  YS02001884YS02001887        0.65      0.65      0.66      0.01         0.01
  YS02001887YS02001890        0.67      0.67      0.68      0.17         0.01
  YS02001890YS02001895        0.60      0.60      0.70      0.01         0.01
  YS02001895YS02001898        0.59      0.59      0.60      0.01         0.01
  YS02001898YS02001901        0.60      0.60      0.64      0.01         0.01
  YS02001901YS02001904        0.63      0.63      0.64      0.01         0.01
  YS02001904YS02001907        0.63      0.63      0.93      0.01         0.01
  YS02001907YS02006553        1.11      1.11      1.19      0.01         0.01
  YS02001910YS02001907        0.70      0.70      0.91      0.01         0.01
  YS02001915YS02001910        0.61      0.61      0.70      0.01         0.01
  YS02001918YS02001915        0.52      0.52      0.61      0.01         0.01
  YS02001920YS02001918        0.52      0.52      0.54      0.01         0.01
  YS02001923YS02001920        0.47      0.47      0.54      0.01         0.01
  YS02001926YS02001923        0.18      0.18      0.20      0.01         0.01
  YS02001929YS02001926        0.01      0.01      0.20      0.01         0.01
  YS02006553YS02006556        0.80      0.80      0.93      0.01         0.01
  YS02006556YS02006558        0.86      0.86      0.95      0.01         0.01
  YS02006558YS02006561        0.58      0.78      0.58      1.05         0.58
  YS02006561YS02001783        0.53      0.53      0.68      0.01         0.01
  YS02163301YS02001633        1.25      1.25      1.35      0.01         0.01
  YS02163601YS02164001        1.29      1.29      1.40      0.11         0.01
  YS02164001YS02001641        1.29      1.29      1.31      0.79         0.72
  YSB1154YSB6556              0.85      0.85      1.03      0.01         0.01
  YSB1171HS02004479           0.73      0.73      1.04      0.01         0.01
  YSB1174YSB1171              0.93      0.93      1.34      0.01         0.01
  YSB6556YSB1171              0.85      0.85      1.47      0.01         0.01
  
  
  ***************
  Pumping Summary
  ***************
  
  ---------------------------------------------------------------------------------------------------------
                                                  Min       Avg       Max     Total     Power    % Time Off
                        Percent   Number of      Flow      Flow      Flow    Volume     Usage    Pump Curve
  Pump                 Utilized   Start-Ups       LPS       LPS       LPS  10^6 ltr     Kw-hr    Low   High
  ---------------------------------------------------------------------------------------------------------
  CC-R1                   74.95           9      0.00    555.70    683.00     8.109    143.19    0.0   63.5
  CC-R2                   33.40           8      0.00    502.05    683.00     3.159     56.17    0.0   64.3
  CC-S1                   61.03          11      0.00    176.25    200.00     2.152     15.24    0.0   42.2
  CC-S2                   36.00          11      0.00    159.88    200.00     1.215      8.75    0.0   32.9
  JK-R1                   66.71           7      0.00    150.28   1000.00     2.453     17.67    0.0    0.0
  JK-R2                   44.45          11      0.00    156.38   1000.00     1.771      7.15    0.0    0.0
  JK-S                    33.39           8      0.00     65.45    300.00     0.559      7.79    0.0    0.0
  XR-1                    97.22           1      0.00     95.00     95.00     1.995      8.83    0.0    0.0
  XR-2                    91.92           1      0.00     95.00     95.00     1.886      7.98    0.0    0.0
  XR-3                     0.00           0      0.00      0.00      0.00     0.000      0.00    0.0    0.0
  XR-4                     0.00           0      0.00      0.00      0.00     0.000      0.00    0.0    0.0
  

  Analysis begun on:  Mon Aug 22 16:56:41 2022
  Analysis ended on:  Mon Aug 22 16:56:47 2022
  Total elapsed time: 00:00:06