
  EPA STORM WATER MANAGEMENT MODEL - VERSION 5.1 (Build 5.3.0.dev0)
  --------------------------------------------------------------

  WARNING 04: minimum elevation drop used for Conduit WS02004404WS02004405
  WARNING 03: negative offset ignored for Link YS02001904YS02001907
  
  *********************************************************
  NOTE: The summary statistics displayed in this report are
  based on results found at every computational time step,  
  not just on results from each reporting time step.
  *********************************************************
  
  ****************
  Analysis Options
  ****************
  Flow Units ............... LPS
  Process Models:
    Rainfall/Runoff ........ YES
    RDII ................... NO
    Snowmelt ............... NO
    Groundwater ............ NO
    Flow Routing ........... YES
    Ponding Allowed ........ NO
    Water Quality .......... NO
  Infiltration Method ...... HORTON
  Flow Routing Method ...... DYNWAVE
  Surcharge Method ......... EXTRAN
  Starting Date ............ 01/01/2000 00:00:00
  Ending Date .............. 01/01/2000 06:00:00
  Antecedent Dry Days ...... 8.0
  Report Time Step ......... 00:01:00
  Wet Time Step ............ 00:01:00
  Dry Time Step ............ 00:01:00
  Routing Time Step ........ 30.00 sec
  Variable Time Step ....... YES
  Maximum Trials ........... 8
  Number of Threads ........ 4
  Head Tolerance ........... 0.001500 m
  
  
  **************************        Volume         Depth
  Runoff Quantity Continuity     hectare-m            mm
  **************************     ---------       -------
  Total Precipitation ......         3.987        65.814
  Evaporation Loss .........         0.000         0.000
  Infiltration Loss ........         0.236         3.902
  Surface Runoff ...........         3.687        60.858
  Final Storage ............         0.065         1.068
  Continuity Error (%) .....        -0.022
  
  
  **************************        Volume        Volume
  Flow Routing Continuity        hectare-m      10^6 ltr
  **************************     ---------     ---------
  Dry Weather Inflow .......         0.472         4.722
  Wet Weather Inflow .......         3.686        36.861
  Groundwater Inflow .......         0.000         0.000
  RDII Inflow ..............         0.000         0.000
  External Inflow ..........         0.078         0.784
  External Outflow .........         2.939        29.391
  Flooding Loss ............         1.636        16.355
  Evaporation Loss .........         0.000         0.000
  Exfiltration Loss ........         0.000         0.000
  Initial Stored Volume ....         0.303         3.031
  Final Stored Volume ......         0.170         1.699
  Continuity Error (%) .....        -4.512
  
  
  *************************
  Highest Continuity Errors
  *************************
  Node JK-storage (-40.75%)
  Node YS02001583 (-13.33%)
  Node YS02001884 (5.23%)
  Node HS02004842 (1.61%)
  Node CC-storage (-1.22%)
  
  
  ***************************
  Time-Step Critical Elements
  ***************************
  Link WS02006252WS02006251 (45.08%)
  Link WS02006238WS02006235 (15.69%)
  Link WS02006280WS02006229 (12.38%)
  Link YS02001793JiankangQianchi (11.67%)
  Link WS02003066WSF200 (2.28%)
  
  
  ********************************
  Highest Flow Instability Indexes
  ********************************
  Link WS02006113WS02006111 (41)
  Link WS02006111WS02006112 (25)
  Link WS02004404WS02004405 (24)
  Link WS02006238WS02006235 (22)
  Link WS02004403WS02004404 (20)
  
  
  *************************
  Routing Time Step Summary
  *************************
  Minimum Time Step           :     0.50 sec
  Average Time Step           :     1.50 sec
  Maximum Time Step           :    30.00 sec
  Percent in Steady State     :    -0.00
  Average Iterations per Step :     3.30
  Percent Not Converging      :    11.63
  
  
  ***************************
  Subcatchment Runoff Summary
  ***************************
  
  ------------------------------------------------------------------------------------------------------------------------------
                            Total      Total      Total      Total     Imperv       Perv      Total       Total     Peak  Runoff
                           Precip      Runon       Evap      Infil     Runoff     Runoff     Runoff      Runoff   Runoff   Coeff
  Subcatchment                 mm         mm         mm         mm         mm         mm         mm    10^6 ltr      LPS
  ------------------------------------------------------------------------------------------------------------------------------
  sub0                      65.81       0.00       0.00       1.00      59.95       3.61      63.56        0.05    33.58   0.966
  sub1                      65.81       0.00       0.00       1.69      57.27       5.55      62.83        0.42   246.19   0.955
  sub10                     65.81       0.00       0.00       1.19      59.22       4.07      63.29        0.70   418.03   0.962
  sub11                     65.81       0.00       0.00       1.18      59.25       4.09      63.34        0.74   456.80   0.962
  sub12                     65.81       0.00       0.00       1.91      56.07       6.65      62.71        0.55   355.32   0.953
  sub14                     65.81       0.00       0.00       1.34      58.59       4.58      63.18        0.60   367.51   0.960
  sub15                     65.81       0.00       0.00       5.19      45.07      14.56      59.62        1.03   569.13   0.906
  sub16                     65.81       0.00       0.00       5.39      43.17      16.34      59.51        0.62   375.26   0.904
  sub17                     65.81       0.00       0.00       5.25      43.81      15.82      59.63        0.51   305.81   0.906
  sub2                      65.81       0.00       0.00       7.39      40.50      16.96      57.47        0.54   250.27   0.873
  sub22                     65.81       0.00       0.00       7.85      36.71      20.45      57.16        3.61  1878.69   0.869
  sub23                     65.81       0.00       0.00       6.41      40.58      17.94      58.52        2.79  1556.56   0.889
  sub3                      65.81       0.00       0.00       8.03      40.43      16.33      56.76        1.28   535.08   0.862
  sub4                      65.81       0.00       0.00       1.87      56.97       5.37      62.34        1.30   591.47   0.947
  sub5                      65.81       0.00       0.00       1.04      59.85       3.57      63.41        0.72   424.16   0.964
  sub60                     65.81       0.00       0.00       1.80      56.68       6.10      62.79        0.83   516.57   0.954
  sub61                     65.81       0.00       0.00       2.60      53.47       8.59      62.06        1.14   715.17   0.943
  sub62                     65.81       0.00       0.00       1.20      59.21       4.07      63.28        1.73  1027.51   0.961
  sub63                     65.81       0.00       0.00       4.78      45.74      14.31      60.05        1.36   807.27   0.912
  sub64                     65.81       0.00       0.00       2.42      54.67       7.46      62.13        1.49   840.45   0.944
  sub65                     65.81       0.00       0.00       2.09      55.92       6.47      62.39        1.72   940.47   0.948
  sub66                     65.81       0.00       0.00       5.88      45.54      13.21      58.75        2.74  1203.66   0.893
  sub67                     65.81       0.00       0.00       1.16      59.29       4.11      63.40        1.18   757.10   0.963
  sub68                     65.81       0.00       0.00       2.15      55.38       7.06      62.44        1.72  1045.77   0.949
  sub69                     65.81       0.00       0.00       1.90      55.75       7.97      63.72        2.36  1255.86   0.968
  sub7                      65.81       0.00       0.00       1.32      58.62       4.60      63.22        0.21   134.11   0.961
  sub70                     65.81       0.00       0.00       6.31      43.14      16.06      59.21        1.71   672.89   0.900
  sub71                     65.81       0.00       0.00       1.23      59.13       4.04      63.17        1.65   912.54   0.960
  sub72                     65.81       0.00       0.00       1.09      59.66       3.52      63.18        0.87   439.26   0.960
  sub8                      65.81       0.00       0.00       1.34      58.60       4.59      63.19        0.40   248.98   0.960
  sub9                      65.81       0.00       0.00       1.34      58.60       4.59      63.18        0.30   186.48   0.960
  
  
  ******************
  Node Depth Summary
  ******************
  
  ---------------------------------------------------------------------------------
                                 Average  Maximum  Maximum  Time of Max    Reported
                                   Depth    Depth      HGL   Occurrence   Max Depth
  Node                 Type       Meters   Meters   Meters  days hr:min      Meters
  ---------------------------------------------------------------------------------
  HS02004478           JUNCTION     0.25     1.60    10.83     0  01:44        1.57
  HS02004479           JUNCTION     0.33     1.70    10.90     0  01:44        1.67
  HS02004480           JUNCTION     0.29     1.68    10.92     0  01:44        1.63
  HS02004770           JUNCTION     0.29     1.42    11.25     0  01:41        1.42
  HS02004777           JUNCTION     0.31     1.48    11.28     0  01:41        1.48
  HS02004785           JUNCTION     0.21     1.49    11.39     0  01:41        1.45
  HS02004788           JUNCTION     0.18     1.42    11.32     0  01:41        1.42
  HS02004792           JUNCTION     0.24     1.60    11.12     0  01:41        1.60
  HS02004799           JUNCTION     0.36     1.76    10.97     0  01:43        1.76
  HS02004802           JUNCTION     0.34     1.81    10.94     0  01:44        1.80
  HS02004807           JUNCTION     0.32     1.92    11.09     0  01:44        1.92
  HS02004817           JUNCTION     0.61     2.40    11.24     0  01:44        2.38
  HS02004824           JUNCTION     0.19     1.97    11.37     0  01:44        1.94
  HS02004830           JUNCTION     0.19     1.98    11.45     0  01:44        1.91
  HS02004837           JUNCTION     0.16     1.93    11.51     0  01:44        1.82
  HS02004842           JUNCTION     0.45     2.22    11.49     0  01:44        2.13
  HS02004848           JUNCTION     0.14     1.99    11.59     0  01:44        1.81
  HS02004852           JUNCTION     0.15     2.04    11.55     0  01:44        1.87
  HS02004856           JUNCTION     0.20     2.06    11.49     0  01:44        1.92
  HS02004862           JUNCTION     0.16     2.00    11.38     0  01:44        1.91
  HS02004870           JUNCTION     0.15     2.10    11.39     0  01:44        1.90
  HS02004876           JUNCTION     0.20     2.26    11.29     0  01:44        1.98
  HS02004881           JUNCTION     0.14     2.15    11.18     0  01:44        1.74
  HS02004901           JUNCTION     0.30     1.42    11.24     0  01:41        1.42
  WS02001211           JUNCTION     0.65     0.81     5.65     0  01:52        0.81
  WS02001212           JUNCTION     0.39     0.57     5.64     0  01:51        0.57
  WS02001213           JUNCTION     0.62     0.87     5.63     0  01:51        0.87
  WS02003059           JUNCTION     0.69     0.94     5.63     0  01:52        0.94
  WS02003060           JUNCTION     0.41     0.69     5.62     0  01:51        0.69
  WS02003066           JUNCTION     0.26     0.46     6.01     0  01:50        0.46
  WS02003067           JUNCTION     0.60     0.89     6.21     0  01:50        0.89
  WS02003069           JUNCTION     0.46     0.78     5.36     0  01:52        0.78
  WS02003072           JUNCTION     0.52     0.81     5.18     0  01:52        0.81
  WS02003073           JUNCTION     0.31     0.52     4.58     0  01:52        0.52
  WS02004138           JUNCTION     0.13     0.14     7.39     0  00:32        0.14
  WS02004139           JUNCTION     0.58     0.75     5.66     0  01:53        0.75
  WS02004401           JUNCTION     0.85     1.87     7.87     0  01:50        1.87
  WS02004402           JUNCTION     0.87     1.82     7.78     0  01:50        1.81
  WS02004403           JUNCTION     0.88     1.74     7.67     0  01:50        1.73
  WS02004404           JUNCTION     0.94     1.74     7.59     0  01:50        1.74
  WS02004405           JUNCTION     0.93     1.69     7.54     0  01:50        1.69
  WS02004406           JUNCTION     0.91     1.58     7.41     0  01:50        1.58
  WS02004407           JUNCTION     0.31     0.94     7.25     0  01:50        0.94
  WS02004409           JUNCTION     0.62     1.39     7.16     0  01:49        1.39
  WS02004410           JUNCTION     0.62     1.30     7.02     0  01:50        1.29
  WS02004411           JUNCTION     0.62     1.21     6.89     0  01:50        1.21
  WS02004412           JUNCTION     0.62     1.11     6.75     0  01:50        1.10
  WS02004413           JUNCTION     0.76     1.15     6.62     0  01:50        1.15
  WS02006109           JUNCTION     1.08     2.64     9.26     0  01:42        2.64
  WS02006110           JUNCTION     1.01     2.40     8.98     0  01:50        2.39
  WS02006111           JUNCTION     0.48     1.75     8.45     0  01:50        1.75
  WS02006112           JUNCTION     1.08     2.68     8.56     0  00:00        2.39
  WS02006113           JUNCTION     0.57     1.83     8.72     0  01:50        1.82
  WS02006115           JUNCTION     0.78     1.97     8.11     0  01:49        1.97
  WS02006116           JUNCTION     0.85     1.96     8.00     0  01:50        1.95
  WS02006228           JUNCTION     1.15     3.03     9.68     0  01:44        3.02
  WS02006229           JUNCTION     1.16     3.24     9.94     0  01:44        3.21
  WS02006230           JUNCTION     1.08     2.65     9.39     0  01:40        2.65
  WS02006231           JUNCTION     0.79     2.19     9.31     0  01:45        2.18
  WS02006232           JUNCTION     0.89     2.18     9.22     0  01:40        2.18
  WS02006234           JUNCTION     0.78     1.96     9.12     0  01:38        1.96
  WS02006235           JUNCTION     0.79     2.00     9.16     0  01:40        1.92
  WS02006238           JUNCTION     0.82     2.08     9.22     0  03:00        1.93
  WS02006239           JUNCTION     0.76     1.99     9.19     0  03:00        1.78
  WS02006240           JUNCTION     0.70     1.79     9.08     0  03:00        1.62
  WS02006242           JUNCTION     0.75     1.55     8.82     0  01:32        1.55
  WS02006243           JUNCTION     0.63     1.41     8.83     0  03:00        1.36
  WS02006245           JUNCTION     0.61     1.32     8.80     0  03:00        1.26
  WS02006247           JUNCTION     0.62     1.26     8.76     0  03:00        1.22
  WS02006248           JUNCTION     0.56     1.10     8.69     0  01:34        1.10
  WS02006249           JUNCTION     0.58     1.09     8.69     0  01:35        1.09
  WS02006251           JUNCTION     0.68     2.21     9.88     0  01:44        2.13
  WS02006252           JUNCTION     0.48     1.50     9.74     0  00:40        1.50
  WS02006253           JUNCTION     0.77     3.45    11.09     0  01:44        3.02
  WS02006256           JUNCTION     1.07     2.35     9.28     0  00:50        2.35
  WS02006280           JUNCTION     0.32     1.77    10.04     0  01:44        1.74
  WS02006284           JUNCTION     0.58     1.97    10.37     0  01:44        1.94
  WS02006287           JUNCTION     0.32     1.76    10.71     0  01:44        1.73
  WSF200               JUNCTION     0.26     0.52     5.76     0  01:50        0.52
  YS02001580           JUNCTION     0.11     1.05     9.59     0  01:42        0.77
  YS02001583           JUNCTION     0.14     1.14     9.64     0  01:42        0.82
  YS02001586           JUNCTION     0.22     1.13     9.30     0  01:42        1.13
  YS02001590           JUNCTION     0.33     1.40     9.26     0  01:42        1.37
  YS02001593           JUNCTION     0.26     1.36     9.22     0  01:42        1.28
  YS02001596           JUNCTION     0.35     1.72     9.13     0  01:42        1.65
  YS02001600           JUNCTION     0.43     1.87     9.00     0  01:42        1.86
  YS02001601           JUNCTION     0.62     2.06     8.90     0  01:41        2.06
  YS02001602           JUNCTION     0.54     1.87     8.77     0  01:41        1.87
  YS02001605           JUNCTION     0.50     1.78     8.68     0  01:42        1.77
  YS02001607           JUNCTION     0.49     1.65     8.49     0  01:50        1.64
  YS02001610           JUNCTION     0.53     1.68     8.48     0  01:42        1.68
  YS02001613           JUNCTION     0.49     1.69     8.53     0  01:42        1.66
  YS02001616           JUNCTION     0.43     1.61     8.52     0  01:42        1.60
  YS02001619           JUNCTION     0.41     1.61     8.54     0  01:42        1.59
  YS02001622           JUNCTION     0.40     1.58     8.48     0  01:42        1.56
  YS02001625           JUNCTION     0.63     1.78     8.38     0  01:42        1.78
  YS02001629           JUNCTION     0.56     1.85     8.40     0  01:42        1.85
  YS02001633           JUNCTION     0.63     2.05     8.50     0  01:43        1.99
  YS02001641           JUNCTION     0.61     1.96     8.40     0  01:45        1.94
  YS02001644           JUNCTION     0.60     1.92     8.35     0  01:46        1.92
  YS02001647           JUNCTION     0.42     1.75     8.36     0  01:46        1.72
  YS02001649           JUNCTION     0.51     1.97     8.36     0  01:46        1.91
  YS02001652           JUNCTION     0.39     1.86     8.46     0  01:46        1.75
  YS02001655           JUNCTION     0.28     1.72     8.57     0  01:46        1.55
  YS02001658           JUNCTION     0.16     1.49     8.63     0  01:46        1.48
  YS02001661           JUNCTION     0.14     1.31     8.72     0  01:46        1.10
  YS02001664           JUNCTION     0.06     0.61     8.54     0  01:46        0.60
  YS02001745           JUNCTION     0.06     0.82     8.34     0  01:46        0.70
  YS02001748           JUNCTION     0.16     1.62     8.69     0  01:46        1.14
  YS02001751           JUNCTION     0.24     1.61     8.49     0  01:46        1.33
  YS02001754           JUNCTION     0.36     1.74     8.35     0  01:46        1.59
  YS02001757           JUNCTION     0.57     1.99     8.25     0  01:46        1.93
  YS02001759           JUNCTION     0.51     1.98     8.34     0  01:46        1.92
  YS02001762           JUNCTION     0.49     1.99     8.39     0  01:46        1.92
  YS02001765           JUNCTION     0.46     1.96     8.41     0  01:46        1.89
  YS02001767           JUNCTION     0.44     1.94     8.43     0  01:46        1.88
  YS02001770           JUNCTION     0.45     1.95     8.44     0  01:46        1.91
  YS02001774           JUNCTION     0.51     2.00     8.42     0  01:46        1.96
  YS02001779           JUNCTION     0.33     1.68     8.37     0  01:44        1.68
  YS02001783           JUNCTION     0.26     1.81     7.95     0  01:46        1.51
  YS02001784           JUNCTION     0.27     1.80     7.87     0  01:46        1.45
  YS02001786           JUNCTION     0.23     1.65     7.68     0  01:46        1.29
  YS02001788           JUNCTION     0.16     1.58     7.56     0  01:46        1.15
  YS02001790           JUNCTION     0.20     1.67     7.31     0  01:46        1.30
  YS02001791           JUNCTION     0.13     1.61     7.08     0  01:46        1.27
  YS02001793           JUNCTION     0.09     1.90     6.73     0  01:46        1.80
  YS02001882           JUNCTION     0.32     1.77     8.48     0  01:42        1.66
  YS02001884           JUNCTION     0.40     1.84     8.46     0  01:42        1.75
  YS02001887           JUNCTION     0.48     1.87     8.41     0  01:42        1.81
  YS02001890           JUNCTION     0.51     1.81     8.32     0  01:42        1.81
  YS02001895           JUNCTION     0.29     1.58     8.33     0  01:43        1.56
  YS02001898           JUNCTION     0.30     1.59     8.33     0  01:43        1.56
  YS02001901           JUNCTION     0.40     1.70     8.31     0  01:43        1.67
  YS02001904           JUNCTION     0.38     1.65     8.28     0  01:43        1.64
  YS02001907           JUNCTION     0.68     1.96     8.25     0  01:43        1.96
  YS02001910           JUNCTION     0.49     1.97     8.48     0  01:44        1.87
  YS02001915           JUNCTION     0.32     1.91     8.63     0  01:44        1.76
  YS02001918           JUNCTION     0.18     1.81     8.88     0  01:44        1.44
  YS02001920           JUNCTION     0.26     2.14     9.15     0  01:44        1.52
  YS02001923           JUNCTION     0.14     2.03     9.29     0  01:44        1.29
  YS02001926           JUNCTION     0.17     1.90     9.35     0  01:44        1.12
  YS02001929           JUNCTION     0.10     1.70     9.39     0  01:44        0.94
  YS02006553           JUNCTION     0.69     2.05     8.34     0  01:46        2.00
  YS02006556           JUNCTION     0.66     2.14     8.45     0  01:46        2.00
  YS02006558           JUNCTION     0.70     2.22     8.49     0  01:46        2.05
  YS02006561           JUNCTION     0.16     1.37     8.03     0  01:46        1.12
  YS02163301           JUNCTION     0.58     1.95     8.46     0  01:43        1.91
  YS02163601           JUNCTION     0.66     2.06     8.45     0  01:45        2.01
  YS02164001           JUNCTION     0.59     1.97     8.43     0  01:45        1.93
  YSB1154              JUNCTION     0.45     1.93    10.99     0  01:48        1.92
  YSB1171              JUNCTION     0.60     1.95    10.85     0  01:42        1.95
  YSB1174              JUNCTION     0.41     1.81    10.92     0  01:46        1.79
  YSB6556              JUNCTION     0.36     1.76    10.93     0  01:42        1.74
  CC-1                 OUTFALL      0.00     0.00     0.00     0  00:00        0.00
  CC-2                 OUTFALL      0.00     0.00     0.00     0  00:00        0.00
  JK-1                 OUTFALL      0.00     0.00     0.00     0  00:00        0.00
  JK-2                 OUTFALL      0.00     0.00     0.00     0  00:00        0.00
  WSC                  OUTFALL      0.31     0.52     1.19     0  01:53        0.52
  CC-storage           STORAGE      0.87     1.89     7.39     0  02:47        1.89
  JK-storage           STORAGE      0.26     5.80     6.60     0  01:46        5.80
  XR-storage           STORAGE      7.70     8.66     6.66     0  06:00        8.66
  
  
  *******************
  Node Inflow Summary
  *******************
  
  -------------------------------------------------------------------------------------------------
                                  Maximum  Maximum                  Lateral       Total        Flow
                                  Lateral    Total  Time of Max      Inflow      Inflow     Balance
                                   Inflow   Inflow   Occurrence      Volume      Volume       Error
  Node                 Type           LPS      LPS  days hr:min    10^6 ltr    10^6 ltr     Percent
  -------------------------------------------------------------------------------------------------
  HS02004478           JUNCTION      0.00  2304.48     0  01:48           0        8.84      -0.008
  HS02004479           JUNCTION      0.00   514.08     0  01:44           0       0.869       0.097
  HS02004480           JUNCTION      0.00  2164.90     0  01:42           0        6.62       0.044
  HS02004770           JUNCTION   1556.56  1556.56     0  01:50        2.79        3.03       0.110
  HS02004777           JUNCTION      0.03   882.06     0  01:41    0.000648        1.92       0.280
  HS02004785           JUNCTION      0.15   885.04     0  01:41     0.00324        1.92       0.034
  HS02004788           JUNCTION    570.80  1094.87     0  01:41        1.06        2.98      -0.027
  HS02004792           JUNCTION   1878.97  2691.98     0  01:50        3.62        6.59       0.016
  HS02004799           JUNCTION    367.51  1734.26     0  01:42       0.601        5.97       0.052
  HS02004802           JUNCTION      0.00  1233.12     0  01:52           0        2.35       0.173
  HS02004807           JUNCTION    456.80  1479.17     0  01:50       0.736        2.43       0.178
  HS02004817           JUNCTION      0.60  1025.41     0  01:50       0.013        1.75       0.954
  HS02004824           JUNCTION    591.52  1024.04     0  01:50         1.3        1.98       0.038
  HS02004830           JUNCTION      0.15   736.42     0  01:42     0.00324        0.91       0.157
  HS02004837           JUNCTION    424.38   972.09     0  01:42       0.835        1.28       0.083
  HS02004842           JUNCTION      0.00   956.05     0  01:42           0       0.826       1.640
  HS02004848           JUNCTION    535.08  1198.74     0  01:42        1.28        1.93       0.009
  HS02004852           JUNCTION      0.00  1138.08     0  01:43           0        1.77       0.006
  HS02004856           JUNCTION    186.48  1241.23     0  01:43       0.304        2.08       0.067
  HS02004862           JUNCTION    250.47  1342.73     0  01:44        0.54        2.62       0.004
  HS02004870           JUNCTION    248.98  1440.42     0  01:44       0.404        3.02      -0.003
  HS02004876           JUNCTION    246.19  1464.02     0  01:50       0.418        3.43       0.012
  HS02004881           JUNCTION    134.11  1598.29     0  01:50       0.213        3.65       0.003
  HS02004901           JUNCTION    375.26   630.09     0  01:50       0.623       0.977       0.208
  WS02001211           JUNCTION      7.35   206.77     0  01:42       0.159        4.02       0.829
  WS02001212           JUNCTION      0.00   210.28     0  03:18           0        3.98       0.390
  WS02001213           JUNCTION      0.00   215.58     0  03:18           0        3.97       0.459
  WS02003059           JUNCTION      0.00   222.39     0  03:18           0        3.96       0.816
  WS02003060           JUNCTION     16.53  1514.58     0  01:51       0.357        13.8       0.110
  WS02003066           JUNCTION      0.00  1309.09     0  01:50           0        9.53       0.018
  WS02003067           JUNCTION      0.00  1309.01     0  01:50           0        9.53       0.049
  WS02003069           JUNCTION      0.32  1512.32     0  01:51     0.00691        13.8       0.117
  WS02003072           JUNCTION      0.00  1511.25     0  01:52           0        13.8       0.156
  WS02003073           JUNCTION      1.82  1513.03     0  01:52      0.0393        13.8       0.162
  WS02004138           JUNCTION      0.00   190.00     0  00:28           0        3.88       0.084
  WS02004139           JUNCTION      0.32   190.32     0  00:32     0.00693        3.89       0.693
  WS02004401           JUNCTION      0.00  1309.48     0  01:50           0        9.66       0.129
  WS02004402           JUNCTION      0.00  1310.28     0  01:50           0        9.65       0.124
  WS02004403           JUNCTION      0.00  1309.99     0  01:50           0        9.63       0.119
  WS02004404           JUNCTION      0.16  1309.84     0  01:50      0.0035        9.63       0.101
  WS02004405           JUNCTION      0.04  1310.15     0  01:50    0.000823        9.62       0.133
  WS02004406           JUNCTION      0.00  1310.04     0  01:50           0         9.6       0.236
  WS02004407           JUNCTION      0.00  1310.65     0  01:50           0        9.58       0.020
  WS02004409           JUNCTION      0.00  1308.20     0  01:50           0        9.57       0.041
  WS02004410           JUNCTION      0.00  1308.48     0  01:50           0        9.57       0.059
  WS02004411           JUNCTION      0.00  1308.67     0  01:50           0        9.56       0.070
  WS02004412           JUNCTION      0.00  1309.12     0  01:50           0        9.56       0.094
  WS02004413           JUNCTION      0.00  1309.63     0  01:50           0        9.55       0.154
  WS02006109           JUNCTION      1.23  1308.01     0  00:00      0.0266        9.41       0.074
  WS02006110           JUNCTION      0.00  1123.39     0  02:10           0         9.1      -0.379
  WS02006111           JUNCTION      0.00  1176.04     0  00:00           0        9.13      -0.414
  WS02006112           JUNCTION    305.81  2307.30     0  00:00       0.512        9.68       0.006
  WS02006113           JUNCTION      0.00  1123.58     0  02:10           0        9.09      -0.492
  WS02006115           JUNCTION      0.00  2152.75     0  00:00           0        9.66       0.056
  WS02006116           JUNCTION      0.00  1309.91     0  01:50           0        9.65      -0.002
  WS02006228           JUNCTION      0.00  1288.95     0  01:50           0        9.36       0.032
  WS02006229           JUNCTION      0.00  2306.42     0  01:48           0        11.8       0.090
  WS02006230           JUNCTION     10.28  1026.10     0  01:48       0.222         5.5       0.101
  WS02006231           JUNCTION      0.00   517.66     0  03:50           0        4.25      -0.090
  WS02006232           JUNCTION      0.00   511.71     0  03:50           0        4.26       0.173
  WS02006234           JUNCTION      0.00   497.15     0  03:50           0        4.25      -0.074
  WS02006235           JUNCTION      0.00   498.77     0  03:50           0        4.16       0.138
  WS02006238           JUNCTION      0.00   409.92     0  03:59           0        3.88      -0.247
  WS02006239           JUNCTION      0.00   409.88     0  03:59           0        3.86      -0.272
  WS02006240           JUNCTION      0.00   409.81     0  03:59           0        3.86      -0.002
  WS02006242           JUNCTION      0.00   409.78     0  03:59           0        3.86       0.073
  WS02006243           JUNCTION      0.00   409.74     0  03:59           0        3.48      -0.229
  WS02006245           JUNCTION      0.00   409.69     0  03:59           0        3.49       0.457
  WS02006247           JUNCTION      0.00   409.64     0  03:59           0        3.48       0.064
  WS02006248           JUNCTION      0.00   411.99     0  03:42           0        3.69       0.001
  WS02006249           JUNCTION      0.00  1362.53     0  01:50           0        6.75       0.161
  WS02006251           JUNCTION      0.08  1633.13     0  01:50     0.00166         6.9       0.008
  WS02006252           JUNCTION      0.00   471.88     0  01:50           0        3.45      -0.081
  WS02006253           JUNCTION     33.58  1632.42     0  01:50      0.0515        3.75       0.029
  WS02006256           JUNCTION      0.00   300.00     0  00:50           0       0.397      -0.319
  WS02006280           JUNCTION      0.00  2304.26     0  01:48           0        8.83       0.016
  WS02006284           JUNCTION      0.10  2304.10     0  01:48     0.00207        8.83       0.000
  WS02006287           JUNCTION      0.00  2304.60     0  01:48           0        8.83       0.011
  WSF200               JUNCTION      0.00  1309.55     0  01:50           0        9.53       0.008
  YS02001580           JUNCTION      0.00   167.22     0  01:42           0     0.00453       2.401
  YS02001583           JUNCTION      0.00   271.17     0  01:42           0      0.0146     -11.761
  YS02001586           JUNCTION    672.89   673.09     0  01:50        1.71        1.72       0.122
  YS02001590           JUNCTION      0.00   318.07     0  01:46           0        1.36      -0.005
  YS02001593           JUNCTION      0.00   318.01     0  01:54           0        1.36       0.011
  YS02001596           JUNCTION      0.00   318.14     0  01:46           0        1.36       0.001
  YS02001600           JUNCTION      0.00   318.09     0  01:45           0        1.36      -0.006
  YS02001601           JUNCTION   1255.86  1573.35     0  01:50        2.36        3.72       0.037
  YS02001602           JUNCTION      0.00   567.15     0  01:41           0        2.28       0.031
  YS02001605           JUNCTION      0.00   566.83     0  01:41           0        2.16       0.042
  YS02001607           JUNCTION      0.00   566.99     0  01:41           0        2.16       0.111
  YS02001610           JUNCTION      0.00   625.92     0  01:50           0        2.33       0.131
  YS02001613           JUNCTION      0.00   564.67     0  01:41           0        1.84       0.119
  YS02001616           JUNCTION      0.00   578.87     0  01:41           0        1.84       0.048
  YS02001619           JUNCTION   1203.66  1203.66     0  01:50        2.74         4.4       0.001
  YS02001622           JUNCTION      0.00   934.30     0  01:42           0        4.22       0.001
  YS02001625           JUNCTION      0.00  1258.81     0  01:50           0        4.37       0.337
  YS02001629           JUNCTION      0.00   944.04     0  01:42           0        3.54      -0.055
  YS02001633           JUNCTION    940.67  1429.26     0  01:43        1.72        5.08       0.076
  YS02001641           JUNCTION      0.00  1429.21     0  01:43           0        4.91       0.064
  YS02001644           JUNCTION    840.49  1901.00     0  01:43        1.49        6.39       0.056
  YS02001647           JUNCTION      0.00  1900.23     0  01:43           0        6.19       0.006
  YS02001649           JUNCTION      0.00  2204.67     0  01:43           0        7.56       0.008
  YS02001652           JUNCTION      0.00   836.65     0  01:47           0        1.37      -0.123
  YS02001655           JUNCTION      0.15   836.39     0  01:47     0.00332        1.37      -0.045
  YS02001658           JUNCTION      0.00   835.12     0  01:47           0        1.36      -0.011
  YS02001661           JUNCTION      0.00   812.17     0  01:50           0        1.36       0.006
  YS02001664           JUNCTION    807.27   807.27     0  01:50        1.36        1.36      -0.006
  YS02001745           JUNCTION    516.57   516.57     0  01:50       0.825       0.825       0.240
  YS02001748           JUNCTION      0.04   581.26     0  01:46    0.000972       0.826      -0.420
  YS02001751           JUNCTION      0.01   531.44     0  01:50    0.000238       0.834       0.098
  YS02001754           JUNCTION      0.26   531.79     0  01:50     0.00562       0.843      -0.180
  YS02001757           JUNCTION      0.00  3514.60     0  01:50           0        11.2       0.033
  YS02001759           JUNCTION    715.21  1418.18     0  01:49        1.14        2.81      -0.008
  YS02001762           JUNCTION      0.00   833.47     0  01:53           0        1.67      -0.003
  YS02001765           JUNCTION      0.00   832.87     0  01:53           0        1.67       0.014
  YS02001767           JUNCTION      0.54   832.44     0  01:53      0.0116        1.67       0.007
  YS02001770           JUNCTION   1027.66  1027.66     0  01:50        1.74        1.79       0.014
  YS02001774           JUNCTION      0.00   391.35     0  01:44           0       0.158       0.572
  YS02001779           JUNCTION      0.01   398.34     0  01:44    0.000108       0.106      -0.482
  YS02001783           JUNCTION      0.00  1160.26     0  01:46           0        4.06       0.008
  YS02001784           JUNCTION      1.06  1161.78     0  01:46      0.0229        4.08       0.018
  YS02001786           JUNCTION      0.06  1162.06     0  01:46     0.00122        4.08       0.017
  YS02001788           JUNCTION      0.07  1165.08     0  01:46     0.00153        4.08       0.007
  YS02001790           JUNCTION      0.15  1203.90     0  01:51     0.00335        4.08       0.008
  YS02001791           JUNCTION      0.00  1338.95     0  01:51           0        4.08      -0.011
  YS02001793           JUNCTION      0.00  1403.34     0  01:51           0        4.08      -0.001
  YS02001882           JUNCTION      0.00    99.54     0  01:42           0      0.0132       5.626
  YS02001884           JUNCTION      0.00   137.54     0  01:42           0       0.049       5.519
  YS02001887           JUNCTION    757.55   757.55     0  01:50        1.19        1.22       0.381
  YS02001890           JUNCTION      0.00   757.78     0  01:50           0        1.18       0.457
  YS02001895           JUNCTION      0.00   517.68     0  01:52           0         1.1       0.176
  YS02001898           JUNCTION      0.00   525.10     0  01:43           0         1.1       0.023
  YS02001901           JUNCTION      0.00   538.52     0  01:43           0         1.1       0.315
  YS02001904           JUNCTION      0.00   543.79     0  01:43           0        1.11       0.277
  YS02001907           JUNCTION      0.00  1933.69     0  01:50           0        3.69       0.514
  YS02001910           JUNCTION      0.00  1353.08     0  01:50           0        2.58       0.292
  YS02001915           JUNCTION    912.56  1353.24     0  01:50        1.65        2.63       0.067
  YS02001918           JUNCTION      0.00   547.15     0  01:43           0        1.01       0.012
  YS02001920           JUNCTION      2.87   481.76     0  01:44       0.062       0.989       0.086
  YS02001923           JUNCTION      0.04   600.75     0  01:43    0.000814        0.91      -0.077
  YS02001926           JUNCTION      0.05   860.23     0  01:44     0.00113        0.89      -0.138
  YS02001929           JUNCTION    439.26   720.11     0  01:44       0.869       0.874      -0.084
  YS02006553           JUNCTION      0.00   792.72     0  02:07           0        2.38       0.509
  YS02006556           JUNCTION      0.00   792.50     0  02:08           0        2.39       0.353
  YS02006558           JUNCTION   1046.65  1192.71     0  01:43        1.74         4.1       0.094
  YS02006561           JUNCTION      0.00  1191.23     0  01:43           0        4.06      -0.002
  YS02163301           JUNCTION      0.00   920.61     0  01:43           0        3.53       0.049
  YS02163601           JUNCTION      0.11  1429.74     0  01:43     0.00238         4.9       0.105
  YS02164001           JUNCTION      0.00  1429.46     0  01:43           0         4.9       0.047
  YSB1154              JUNCTION    424.16   424.16     0  01:50       0.718       0.719       0.212
  YSB1171              JUNCTION      0.00  1013.98     0  01:50           0        1.38       0.496
  YSB1174              JUNCTION    355.32   355.32     0  01:50       0.548       0.549       0.246
  YSB6556              JUNCTION      0.00   424.14     0  01:50           0        0.72       0.187
  CC-1                 OUTFALL       0.00   683.00     0  00:10           0        6.78       0.000
  CC-2                 OUTFALL       0.00   683.00     0  00:20           0        3.47       0.000
  JK-1                 OUTFALL       0.00  1000.00     0  00:00           0         3.3       0.000
  JK-2                 OUTFALL       0.00  1000.00     0  00:00           0        2.06       0.000
  WSC                  OUTFALL       0.00  1513.48     0  01:53           0        13.8       0.000
  CC-storage           STORAGE       0.00  3514.11     0  01:50           0        13.4      -1.202
  JK-storage           STORAGE       0.00  1595.24     0  01:51           0        4.23     -28.950
  XR-storage           STORAGE     200.00   200.00     0  00:00        4.32        4.92       0.001
  
  
  **********************
  Node Surcharge Summary
  **********************
  
  Surcharging occurs when water rises above the top of the highest conduit.
  ---------------------------------------------------------------------
                                               Max. Height   Min. Depth
                                   Hours       Above Crown    Below Rim
  Node                 Type      Surcharged         Meters       Meters
  ---------------------------------------------------------------------
  HS02004478           JUNCTION        0.52          0.678        0.262
  HS02004479           JUNCTION        0.66          0.899        0.151
  HS02004480           JUNCTION        0.70          0.971        0.129
  HS02004770           JUNCTION        0.62          0.720        0.000
  HS02004777           JUNCTION        0.62          0.780        0.000
  HS02004785           JUNCTION        0.57          0.790        0.000
  HS02004788           JUNCTION        0.55          0.720        0.000
  HS02004792           JUNCTION        0.67          0.900        0.000
  HS02004799           JUNCTION        0.80          1.060        0.000
  HS02004802           JUNCTION        0.71          1.097        0.113
  HS02004807           JUNCTION        0.69          1.220        0.000
  HS02004817           JUNCTION        1.29          1.697        0.043
  HS02004824           JUNCTION        0.55          1.269        0.041
  HS02004830           JUNCTION        0.51          1.282        0.048
  HS02004837           JUNCTION        0.47          1.230        0.110
  HS02004842           JUNCTION        0.62          1.520        0.000
  HS02004848           JUNCTION        0.45          1.288        0.082
  HS02004852           JUNCTION        0.46          1.342        0.078
  HS02004856           JUNCTION        0.44          1.291        0.009
  HS02004862           JUNCTION        0.46          1.300        0.000
  HS02004870           JUNCTION        0.47          1.400        0.000
  HS02004876           JUNCTION        0.53          1.560        0.000
  HS02004881           JUNCTION        0.49          1.450        0.000
  HS02004901           JUNCTION        0.62          0.720        0.000
  WS02004401           JUNCTION        1.64          0.869        0.791
  WS02004402           JUNCTION        1.65          0.818        0.922
  WS02004403           JUNCTION        1.65          0.735        1.295
  WS02004404           JUNCTION        1.71          0.744        2.036
  WS02004405           JUNCTION        1.70          0.695        2.105
  WS02004406           JUNCTION        1.68          0.584        1.866
  WS02004409           JUNCTION        0.99          0.392        1.968
  WS02004410           JUNCTION        0.95          0.304        2.236
  WS02004411           JUNCTION        0.91          0.209        2.321
  WS02004412           JUNCTION        0.82          0.109        2.201
  WS02004413           JUNCTION        1.42          0.150        2.050
  WS02006109           JUNCTION        2.23          1.820        0.000
  WS02006110           JUNCTION        1.78          1.488        0.362
  WS02006111           JUNCTION        1.30          0.938        0.932
  WS02006112           JUNCTION        1.89          1.680        0.000
  WS02006113           JUNCTION        1.33          1.028        0.902
  WS02006115           JUNCTION        1.60          0.962        1.288
  WS02006116           JUNCTION        1.61          0.902        1.388
  WS02006228           JUNCTION        2.21          2.200        0.000
  WS02006229           JUNCTION        0.94          1.061        0.009
  WS02006230           JUNCTION        1.70          1.570        0.000
  WS02006231           JUNCTION        1.72          1.479        0.051
  WS02006232           JUNCTION        2.23          1.480        0.000
  WS02006234           JUNCTION        1.91          1.240        0.000
  WS02006235           JUNCTION        2.02          1.290        0.000
  WS02006238           JUNCTION        2.11          1.359        0.071
  WS02006239           JUNCTION        1.99          1.246        0.044
  WS02006240           JUNCTION        1.97          1.079        0.311
  WS02006242           JUNCTION        2.16          0.820        0.000
  WS02006243           JUNCTION        1.96          0.702        0.068
  WS02006245           JUNCTION        1.94          0.607        0.243
  WS02006247           JUNCTION        1.98          0.550        0.210
  WS02006248           JUNCTION        1.90          0.380        0.000
  WS02006249           JUNCTION        1.94          0.390        0.000
  WS02006251           JUNCTION        1.66          1.180        0.000
  WS02006252           JUNCTION        2.48          1.100        0.000
  WS02006253           JUNCTION        1.67          2.410        0.070
  WS02006256           JUNCTION        5.74          2.050        0.000
  WS02006280           JUNCTION        0.82          0.716        0.064
  WS02006284           JUNCTION        0.73          0.694        0.106
  WS02006287           JUNCTION        0.63          0.759        0.131
  YS02001580           JUNCTION        0.66          0.450        0.000
  YS02001583           JUNCTION        0.67          0.500        0.000
  YS02001586           JUNCTION        0.83          0.510        0.000
  YS02001590           JUNCTION        0.92          0.750        0.000
  YS02001593           JUNCTION        0.92          0.738        0.102
  YS02001596           JUNCTION        1.06          0.986        0.084
  YS02001600           JUNCTION        1.27          1.190        0.000
  YS02001601           JUNCTION        1.56          1.440        0.000
  YS02001602           JUNCTION        1.49          1.270        0.000
  YS02001605           JUNCTION        1.46          1.180        0.000
  YS02001607           JUNCTION        0.97          0.646        0.034
  YS02001610           JUNCTION        1.01          0.680        0.000
  YS02001613           JUNCTION        0.97          0.689        0.011
  YS02001616           JUNCTION        0.91          0.610        0.000
  YS02001619           JUNCTION        0.90          0.610        0.000
  YS02001622           JUNCTION        0.90          0.581        0.039
  YS02001625           JUNCTION        1.20          0.780        0.000
  YS02001629           JUNCTION        0.84          0.470        0.000
  YS02001633           JUNCTION        1.28          1.029        0.031
  YS02001641           JUNCTION        1.26          0.959        0.141
  YS02001644           JUNCTION        1.25          0.920        0.000
  YS02001647           JUNCTION        0.92          0.749        0.151
  YS02001649           JUNCTION        1.22          0.975        0.075
  YS02001652           JUNCTION        0.74          0.830        0.300
  YS02001655           JUNCTION        0.30          0.716        0.484
  YS02001658           JUNCTION        0.17          0.487        0.813
  YS02001661           JUNCTION        0.01          0.242        1.148
  YS02001748           JUNCTION        0.08          0.536        0.654
  YS02001751           JUNCTION        0.19          0.611        0.589
  YS02001754           JUNCTION        0.37          0.694        0.456
  YS02001757           JUNCTION        1.50          0.987        0.223
  YS02001759           JUNCTION        1.21          0.976        0.234
  YS02001762           JUNCTION        1.18          0.989        0.161
  YS02001765           JUNCTION        1.14          0.964        0.136
  YS02001767           JUNCTION        1.07          0.938        0.092
  YS02001770           JUNCTION        0.95          0.920        0.000
  YS02001774           JUNCTION        1.16          1.000        0.050
  YS02001779           JUNCTION        0.39          0.680        0.000
  YS02001783           JUNCTION        0.59          1.011        0.589
  YS02001784           JUNCTION        0.56          0.998        0.492
  YS02001786           JUNCTION        0.46          0.845        0.585
  YS02001788           JUNCTION        0.07          0.784        0.696
  YS02001790           JUNCTION        0.08          0.868        0.289
  YS02001791           JUNCTION        0.07          0.814        1.106
  YS02001793           JUNCTION        0.09          0.900        1.700
  YS02001882           JUNCTION        0.53          0.769        0.061
  YS02001884           JUNCTION        0.54          0.784        0.086
  YS02001887           JUNCTION        0.58          0.821        0.129
  YS02001890           JUNCTION        0.59          0.760        0.000
  YS02001895           JUNCTION        0.52          0.580        0.170
  YS02001898           JUNCTION        0.52          0.560        0.180
  YS02001901           JUNCTION        0.56          0.696        0.174
  YS02001904           JUNCTION        0.55          0.650        0.200
  YS02001907           JUNCTION        0.78          0.950        0.000
  YS02001910           JUNCTION        0.62          0.974        0.126
  YS02001915           JUNCTION        0.53          0.914        0.086
  YS02001918           JUNCTION        0.45          0.810        0.000
  YS02001920           JUNCTION        0.46          1.140        0.000
  YS02001923           JUNCTION        0.06          0.820        0.000
  YS02001926           JUNCTION        0.12          0.900        0.000
  YS02001929           JUNCTION        0.01          0.697        0.083
  YS02006553           JUNCTION        0.80          1.053        0.137
  YS02006556           JUNCTION        0.70          1.097        0.253
  YS02006558           JUNCTION        0.69          1.121        0.279
  YS02006561           JUNCTION        0.41          0.574        0.576
  YS02163301           JUNCTION        1.25          0.946        0.084
  YS02163601           JUNCTION        1.32          1.056        0.024
  YS02164001           JUNCTION        1.25          0.971        0.129
  YSB1154              JUNCTION        0.92          1.229        0.171
  YSB1171              JUNCTION        0.93          1.100        0.000
  YSB1174              JUNCTION        0.83          1.108        0.142
  YSB6556              JUNCTION        0.77          1.060        0.040
  
  
  *********************
  Node Flooding Summary
  *********************
  
  Flooding refers to all water that overflows a node, whether it ponds or not.
  --------------------------------------------------------------------------
                                                             Total   Maximum
                                 Maximum   Time of Max       Flood    Ponded
                        Hours       Rate    Occurrence      Volume     Depth
  Node                 Flooded       LPS   days hr:min    10^6 ltr    Meters
  --------------------------------------------------------------------------
  HS02004770              0.40   1059.56      0  01:50       0.749     0.000
  HS02004777              0.01     57.64      0  01:42       0.001     0.000
  HS02004785              0.01    115.08      0  01:41       0.000     0.000
  HS02004788              0.01    655.00      0  01:41       0.007     0.000
  HS02004792              0.42   1549.85      0  01:50       1.226     0.000
  HS02004799              0.20    209.87      0  01:48       0.096     0.000
  HS02004807              0.07    247.65      0  01:50       0.030     0.000
  HS02004842              0.01     58.76      0  01:44       0.000     0.000
  HS02004862              0.01    221.81      0  01:44       0.002     0.000
  HS02004870              0.01    292.23      0  01:44       0.001     0.000
  HS02004876              0.01     58.92      0  01:44       0.000     0.000
  HS02004881              0.01    107.25      0  01:44       0.000     0.000
  HS02004901              0.49    630.03      0  01:50       0.738     0.000
  WS02006109              0.47    285.00      0  01:50       0.283     0.000
  WS02006112              0.01   1153.65      0  00:00       0.035     0.000
  WS02006228              0.01      2.75      0  01:44       0.000     0.000
  WS02006230              0.74    573.61      0  01:48       1.041     0.000
  WS02006232              0.17      0.93      0  01:40       0.000     0.000
  WS02006234              0.79     82.06      0  01:40       0.146     0.000
  WS02006235              0.01     16.12      0  03:00       0.000     0.000
  WS02006242              0.89    174.64      0  01:32       0.368     0.000
  WS02006248              1.13    338.94      0  02:19       1.176     0.000
  WS02006249              1.57   1306.90      0  01:50       4.025     0.000
  WS02006251              0.01    122.13      0  01:44       0.001     0.000
  WS02006252              0.38    470.90      0  01:50       0.304     0.000
  WS02006256              0.23    283.75      0  04:50       0.073     0.000
  YS02001580              0.01     84.72      0  01:42       0.000     0.000
  YS02001583              0.01    185.03      0  01:42       0.000     0.000
  YS02001586              0.54    355.43      0  01:50       0.345     0.000
  YS02001590              0.01     22.16      0  01:42       0.000     0.000
  YS02001600              0.01      3.92      0  01:42       0.000     0.000
  YS02001601              0.74   1175.44      0  01:50       1.437     0.000
  YS02001602              0.61     61.98      0  01:52       0.125     0.000
  YS02001605              0.01      5.03      0  01:42       0.000     0.000
  YS02001610              0.54    625.54      0  01:50       0.664     0.000
  YS02001616              0.01     40.25      0  01:42       0.000     0.000
  YS02001619              0.01     88.64      0  01:42       0.000     0.000
  YS02001625              0.48   1258.64      0  01:50       0.986     0.000
  YS02001629              0.10    267.99      0  01:42       0.040     0.000
  YS02001644              0.15    617.58      0  01:50       0.195     0.000
  YS02001770              0.01      9.48      0  01:46       0.000     0.000
  YS02001779              0.12    330.98      0  01:44       0.081     0.000
  YS02001890              0.17    241.48      0  01:50       0.074     0.000
  YS02001907              0.39   1933.10      0  01:50       1.301     0.000
  YS02001918              0.01    239.36      0  01:44       0.003     0.000
  YS02001920              0.01     82.62      0  01:44       0.000     0.000
  YS02001923              0.01    195.92      0  01:44       0.001     0.000
  YS02001926              0.01    524.91      0  01:44       0.003     0.000
  YSB1171                 0.30   1012.11      0  01:50       0.613     0.000
  JK-storage              0.06   1058.53      0  01:46       0.204     0.000
  
  
  **********************
  Storage Volume Summary
  **********************
  
  --------------------------------------------------------------------------------------------------
                         Average     Avg  Evap Exfil       Maximum     Max    Time of Max    Maximum
                          Volume    Pcnt  Pcnt  Pcnt        Volume    Pcnt     Occurrence    Outflow
  Storage Unit           1000 m3    Full  Loss  Loss       1000 m3    Full    days hr:min        LPS
  --------------------------------------------------------------------------------------------------
  CC-storage               2.416      38     0     0         5.270      82       0  02:47    1766.00
  JK-storage               0.013       5     0     0         0.291     100       0  01:46    2300.00
  XR-storage               0.924      64     0     0         1.039      72       0  06:00     190.00
  
  
  ***********************
  Outfall Loading Summary
  ***********************
  
  -----------------------------------------------------------
                         Flow       Avg       Max       Total
                         Freq      Flow      Flow      Volume
  Outfall Node           Pcnt       LPS       LPS    10^6 ltr
  -----------------------------------------------------------
  CC-1                  58.92    548.75    683.00       6.784
  CC-2                  28.60    604.28    683.00       3.473
  JK-1                  75.86    221.05   1000.00       3.299
  JK-2                  26.53    399.09   1000.00       2.062
  WSC                   99.99    677.99   1513.48      13.774
  -----------------------------------------------------------
  System                57.98   2451.16   4879.48      29.391
  
  
  ********************
  Link Flow Summary
  ********************
  
  -----------------------------------------------------------------------------
                                 Maximum  Time of Max   Maximum    Max/    Max/
                                  |Flow|   Occurrence   |Veloc|    Full    Full
  Link                 Type          LPS  days hr:min     m/sec    Flow   Depth
  -----------------------------------------------------------------------------
  1                    CONDUIT   1513.48     0  01:53      3.70    0.53    0.52
  HS02004478WS02006287 CONDUIT   2304.60     0  01:48      2.56    0.65    1.00
  HS02004479HS02004480 CONDUIT    512.11     0  01:44      0.73    0.49    1.00
  HS02004480HS02004478 CONDUIT   2174.31     0  01:42      3.11    9.16    1.00
  HS02004770HS02004777 CONDUIT    882.03     0  01:41      1.26    1.61    1.00
  HS02004777HS02004785 CONDUIT    884.89     0  01:41      1.36    1.09    1.00
  HS02004785HS02004788 CONDUIT    844.71     0  01:41      1.34    6.37    1.00
  HS02004788HS02004792 CONDUIT    813.50     0  01:50      1.42    0.54    1.00
  HS02004792HS02004799 CONDUIT   1535.77     0  01:42      2.19    0.94    1.00
  HS02004799HS02004480 CONDUIT   1732.67     0  01:42      2.48    2.19    1.00
  HS02004802HS02004478 CONDUIT   1233.37     0  01:51      1.76    1.09    1.00
  HS02004807HS02004802 CONDUIT   1233.12     0  01:52      1.76    2.35    1.00
  HS02004817HS02004807 CONDUIT   1026.47     0  01:50      1.47    0.61    1.00
  HS02004817HS02004824 CONDUIT   1024.81     0  01:50      1.46    0.46    1.00
  HS02004824HS02004830 CONDUIT    736.27     0  01:42      1.06    0.96    1.00
  HS02004830HS02004837 CONDUIT    744.61     0  01:42      1.13    0.74    1.00
  HS02004837HS02004842 CONDUIT    956.05     0  01:42      1.37    0.57    1.00
  HS02004842HS02004848 CONDUIT    956.94     0  01:42      1.51    0.56    1.00
  HS02004848HS02004852 CONDUIT   1138.08     0  01:43      1.71    1.28    1.00
  HS02004852HS02004856 CONDUIT   1124.65     0  01:43      1.61    1.29    1.00
  HS02004856HS02004862 CONDUIT   1200.83     0  01:44      1.73    1.20    1.00
  HS02004862HS02004870 CONDUIT   1278.58     0  01:44      1.94    1.38    1.00
  HS02004870HS02004876 CONDUIT   1247.54     0  01:44      1.90    0.83    1.00
  HS02004876HS02004881 CONDUIT   1464.87     0  01:50      2.63   15.58    1.00
  HS02004881HS02006253 CONDUIT   1599.10     0  01:50      2.57    0.31    1.00
  HS02004901HS02004770 CONDUIT    265.79     0  02:05      0.38    1.00    1.00
  WS02001211WS02001212 CONDUIT    210.28     0  03:18      0.54    0.16    0.69
  WS02001212WS02001213 CONDUIT    215.58     0  03:18      1.04    0.33    0.56
  WS02001213WS02003059 CONDUIT    222.39     0  03:18      0.46    0.37    0.90
  WS02003059WS02003060 CONDUIT    230.97     0  03:17      0.65    0.15    0.81
  WS02003060WS02003069 CONDUIT   1512.00     0  01:51      2.09    0.59    0.61
  WS02003066WSF200     CONDUIT   1309.55     0  01:50      3.34    0.22    0.39
  WS02003067WS02003066 CONDUIT   1309.09     0  01:50      2.01    0.42    0.56
  WS02003069WS02003072 CONDUIT   1511.25     0  01:52      1.90    0.73    0.66
  WS02003072WS02003073 CONDUIT   1511.21     0  01:52      2.06    3.26    0.62
  WS02004138WS02004139 CONDUIT    190.00     0  00:32      2.12    0.04    0.42
  WS02004139WS02001211 CONDUIT    199.42     0  01:42      0.53    0.25    0.61
  WS02004401WS02004402 CONDUIT   1310.28     0  01:50      2.07    1.57    1.00
  WS02004402WS02004403 CONDUIT   1309.99     0  01:50      1.84    1.88    1.00
  WS02004403WS02004404 CONDUIT   1309.68     0  01:50      1.67    0.95    1.00
  WS02004404WS02004405 CONDUIT   1310.11     0  01:50      1.85   12.84    1.00
  WS02004405WS02004406 CONDUIT   1310.04     0  01:50      1.73    2.58    1.00
  WS02004406WS02004407 CONDUIT   1310.65     0  01:50      1.86    0.59    0.97
  WS02004407WS02004409 CONDUIT   1308.20     0  01:50      1.96    0.46    0.97
  WS02004409WS02004410 CONDUIT   1308.48     0  01:50      1.67    1.69    1.00
  WS02004410WS02004411 CONDUIT   1308.67     0  01:50      1.67    1.79    1.00
  WS02004411WS02004412 CONDUIT   1309.12     0  01:50      1.67    1.86    1.00
  WS02004412WS02004413 CONDUIT   1309.63     0  01:50      1.67    0.88    1.00
  WS02004413WS02003067 CONDUIT   1309.01     0  01:50      2.02    0.56    0.77
  WS02006109WS02006110 CONDUIT   1306.78     0  00:00      3.15    2.51    1.00
  WS02006110WS02006113 CONDUIT   1123.58     0  02:10      2.24    1.02    1.00
  WS02006111WS02006112 CONDUIT   2307.30     0  00:00      9.18    1.10    1.00
  WS02006112WS02006115 CONDUIT   2152.75     0  00:00      2.85    1.27    1.00
  WS02006113WS02006111 CONDUIT   1176.04     0  00:00      2.74    1.41    1.00
  WS02006115WS02006116 CONDUIT   1309.91     0  01:50      1.81    1.68    1.00
  WS02006116WS02004401 CONDUIT   1309.48     0  01:50      2.21    1.80    1.00
  WS02006228WS02006109 CONDUIT   1287.77     0  01:48      2.56    5.63    1.00
  WS02006229WS02006228 CONDUIT   1288.95     0  01:50      2.56    4.27    1.00
  WS02006230WS02006229 CONDUIT   1015.83     0  01:48      2.64   22.61    1.00
  WS02006231WS02006230 CONDUIT    474.32     0  03:50      1.36    7.19    1.00
  WS02006232WS02006231 CONDUIT    517.66     0  03:50      1.36    1.08    1.00
  WS02006234WS02006232 CONDUIT    511.71     0  03:50      1.37    1.04    1.00
  WS02006235WS02006234 CONDUIT    497.15     0  03:50      1.29    5.25    1.00
  WS02006238WS02006235 CONDUIT    411.14     0  03:50      1.65    0.92    1.00
  WS02006239WS02006238 CONDUIT    409.92     0  03:59      1.23    1.31    1.00
  WS02006240WS02006239 CONDUIT    409.88     0  03:59      1.31    1.29    1.00
  WS02006242WS02006240 CONDUIT    409.81     0  03:59      1.15    1.63    1.00
  WS02006243WS02006242 CONDUIT    409.78     0  03:59      1.40    0.88    1.00
  WS02006245WS02006243 CONDUIT    409.74     0  03:59      1.39    1.21    1.00
  WS02006247WS02006245 CONDUIT    409.69     0  03:59      1.38    3.25    1.00
  WS02006248WS02006247 CONDUIT    409.64     0  03:59      1.41    0.89    1.00
  WS02006249WS02006248 CONDUIT    411.99     0  03:42      1.39    2.26    1.00
  WS02006251WS02006249 CONDUIT   1362.53     0  01:50      3.54    3.93    1.00
  WS02006252WS02006251 CONDUIT    409.70     0  02:50     24.70    1.50    1.00
  WS02006253WS02006251 CONDUIT   1633.06     0  01:50      4.24    4.90    1.00
  WS02006256WS02006235 CONDUIT    276.56     0  05:40      4.13    2.93    1.00
  WS02006280WS02006229 CONDUIT   2306.42     0  01:48      4.33    0.49    1.00
  WS02006284WS02006280 CONDUIT   2304.26     0  01:48      3.02    0.96    1.00
  WS02006287WS02006284 CONDUIT   2304.01     0  01:48      2.93    1.07    1.00
  WSF200WS02003060     CONDUIT   1309.53     0  01:51      2.47    0.29    0.50
  YS02001580YS02001583 CONDUIT    167.22     0  01:42      0.89    0.65    1.00
  YS02001583YS02001586 CONDUIT    205.10     0  01:41      0.92    0.31    1.00
  YS02001586YS02001590 CONDUIT    318.07     0  01:46      1.26    0.56    1.00
  YS02001590YS02001593 CONDUIT    318.01     0  01:54      1.12    2.00    1.00
  YS02001593YS02001596 CONDUIT    318.14     0  01:46      1.64    0.50    1.00
  YS02001596YS02001600 CONDUIT    318.09     0  01:45      1.13    0.62    1.00
  YS02001600YS02001601 CONDUIT    318.03     0  01:46      1.12    0.55    1.00
  YS02001601YS02001602 CONDUIT    567.15     0  01:41      2.01    2.05    1.00
  YS02001602YS02001605 CONDUIT    566.83     0  01:41      2.00   12.00    1.00
  YS02001605YS02001607 CONDUIT    566.99     0  01:41      2.01    3.11    1.00
  YS02001607YS02001610 CONDUIT    548.45     0  01:41      0.70    0.52    1.00
  YS02001610YS02001613 CONDUIT    564.67     0  01:41      0.72    0.65    1.00
  YS02001613YS02001616 CONDUIT    578.87     0  01:41      0.74    0.50    1.00
  YS02001616YS02001619 CONDUIT    502.35     0  01:41      0.69    0.87    1.00
  YS02001619YS02001622 CONDUIT    934.30     0  01:42      1.25    1.38    1.00
  YS02001622YS02001625 CONDUIT    940.99     0  01:42      1.20    0.50    1.00
  YS02001625YS02001629 CONDUIT    944.04     0  01:42      1.20    0.45    1.00
  YS02001629YS02163301 CONDUIT    920.61     0  01:43      1.17    1.13    1.00
  YS02001633YS02163601 CONDUIT   1429.63     0  01:43      1.82    1.50    1.00
  YS02001641YS02001644 CONDUIT   1430.15     0  01:43      1.82    4.62    1.00
  YS02001644YS02001647 CONDUIT   1900.23     0  01:43      2.43    1.12    1.00
  YS02001647YS02001649 CONDUIT   1881.48     0  01:43      2.42    0.99    1.00
  YS02001649YS02001757 CONDUIT   2204.35     0  01:43      2.81    1.34    1.00
  YS02001652YS02001649 CONDUIT    837.12     0  01:47      1.07    0.41    1.00
  YS02001655YS02001652 CONDUIT    836.65     0  01:47      1.43    0.41    1.00
  YS02001658YS02001655 CONDUIT    836.24     0  01:47      2.03    0.35    1.00
  YS02001661YS02001658 CONDUIT    835.12     0  01:47      2.40    0.33    1.00
  YS02001664YS02001661 CONDUIT    812.17     0  01:50      2.36    0.25    0.81
  YS02001745YS02001748 CONDUIT    581.21     0  01:46      2.29    0.22    0.91
  YS02001748YS02001751 CONDUIT    531.43     0  01:50      1.86    0.27    1.00
  YS02001751YS02001754 CONDUIT    531.53     0  01:50      1.52    0.26    1.00
  YS02001754YS02001757 CONDUIT    532.38     0  01:50      0.68    0.21    1.00
  YS02001757CaochengTiaoxuchi CONDUIT   3514.11     0  01:50      5.90    1.52    1.00
  YS02001759YS02001757 CONDUIT   1418.62     0  01:49      1.81    1.01    1.00
  YS02001762YS02001759 CONDUIT    833.90     0  01:53      1.06    0.96    1.00
  YS02001765YS02001762 CONDUIT    833.47     0  01:53      1.06    0.78    1.00
  YS02001767YS02001765 CONDUIT    832.87     0  01:53      1.06    1.05    1.00
  YS02001770YS02001767 CONDUIT    831.90     0  01:53      1.06    3.30    1.00
  YS02001774YS02001770 CONDUIT    391.35     0  01:44      0.50    0.25    1.00
  YS02001779YS02001774 CONDUIT    398.33     0  01:44      0.51    0.20    1.00
  YS02001783YS02001784 CONDUIT   1160.72     0  01:46      2.31    1.60    1.00
  YS02001784YS02001785 CONDUIT   1162.00     0  01:46      2.31    2.70    1.00
  YS02001786YS02001788 CONDUIT   1165.00     0  01:46      2.49    2.24    1.00
  YS02001788YS02001790 CONDUIT   1203.74     0  01:51      2.71    0.89    1.00
  YS02001790YS02001791 CONDUIT   1338.95     0  01:51      3.42    1.46    1.00
  YS02001791YS02001793 CONDUIT   1403.34     0  01:51      6.72    0.60    1.00
  YS02001793JiankangQianchi CONDUIT   1595.24     0  01:51     25.64    0.13    1.00
  YS02001882YS02001884 CONDUIT     99.54     0  01:42      0.14    0.11    1.00
  YS02001884YS02001887 CONDUIT    137.54     0  01:42      0.18    0.18    1.00
  YS02001887YS02001890 CONDUIT    757.78     0  01:50      0.96    1.30    1.00
  YS02001890YS02001895 CONDUIT    517.68     0  01:52      0.66    0.24    1.00
  YS02001895YS02001898 CONDUIT    525.10     0  01:43      0.67    0.91    1.00
  YS02001898YS02001901 CONDUIT    538.52     0  01:43      0.69    0.35    1.00
  YS02001901YS02001904 CONDUIT    543.79     0  01:43      0.69    0.84    1.00
  YS02001904YS02001907 CONDUIT    554.69     0  01:43      0.71    0.19    1.00
  YS02001907YS02006553 CONDUIT    792.72     0  02:07      0.88    0.93    1.00
  YS02001910YS02001907 CONDUIT   1353.70     0  01:50      1.72    0.76    1.00
  YS02001915YS02001910 CONDUIT   1353.08     0  01:50      1.72    0.67    1.00
  YS02001918YS02001915 CONDUIT    547.15     0  01:43      0.75    0.30    1.00
  YS02001920YS02001918 CONDUIT    478.89     0  01:44      0.64    0.46    1.00
  YS02001923YS02001920 CONDUIT    479.91     0  01:44      0.73    0.22    1.00
  YS02001926YS02001923 CONDUIT    647.02     0  01:44      1.08    0.92    1.00
  YS02001929YS02001926 CONDUIT    516.40     0  01:44      1.17    0.25    1.00
  YS02006553YS02006556 CONDUIT    792.50     0  02:08      1.01    0.68    1.00
  YS02006556YS02006558 CONDUIT    793.03     0  02:08      1.01    0.63    1.00
  YS02006558YS02006561 CONDUIT   1191.23     0  01:43      4.21    2.63    1.00
  YS02006561YS02001783 CONDUIT   1160.26     0  01:46      2.31    0.60    1.00
  YS02163301YS02001633 CONDUIT    919.91     0  01:43      1.17    0.86    1.00
  YS02163601YS02164001 CONDUIT   1429.46     0  01:43      1.82    1.27    1.00
  YS02164001YS02001641 CONDUIT   1429.21     0  01:43      1.82    1.95    1.00
  YSB1154YSB6556       CONDUIT    424.14     0  01:50      1.10    0.76    1.00
  YSB1171HS02004479    CONDUIT    514.08     0  01:44      1.02    0.34    1.00
  YSB1174YSB1171       CONDUIT    355.51     0  01:50      0.92    0.54    1.00
  YSB6556YSB1171       CONDUIT    425.26     0  01:50      1.11    0.44    1.00
  CC-R1                PUMP       683.00     0  00:10              1.00
  CC-R2                PUMP       683.00     0  00:20              1.00
  CC-S1                PUMP       200.00     0  00:10              1.00
  CC-S2                PUMP       200.00     0  00:10              1.00
  JK-R1                PUMP      1000.00     0  00:00              1.00
  JK-R2                PUMP      1000.00     0  00:00              1.00
  JK-S                 PUMP       300.00     0  00:50              1.00
  XR-1                 PUMP        95.00     0  00:10              1.00
  XR-2                 PUMP        95.00     0  00:28              1.00
  XR-3                 PUMP         0.00     0  00:00              0.00
  XR-4                 PUMP         0.00     0  00:00              0.00
  
  
  ***************************
  Flow Classification Summary
  ***************************
  
  -------------------------------------------------------------------------------------
                      Adjusted    ---------- Fraction of Time in Flow Class ---------- 
                       /Actual         Up    Down  Sub   Sup   Up    Down  Norm  Inlet 
  Conduit               Length    Dry  Dry   Dry   Crit  Crit  Crit  Crit  Ltd   Ctrl  
  -------------------------------------------------------------------------------------
  1                       1.00   0.00  0.00  0.00  0.00  1.00  0.00  0.00  0.57  0.00
  HS02004478WS02006287    1.00   0.18  0.00  0.00  0.57  0.25  0.00  0.00  0.46  0.00
  HS02004479HS02004480    1.00   0.02  0.00  0.00  0.98  0.00  0.00  0.00  0.15  0.00
  HS02004480HS02004478    1.00   0.16  0.00  0.00  0.46  0.00  0.00  0.39  0.00  0.00
  HS02004770HS02004777    1.00   0.00  0.15  0.00  0.85  0.00  0.00  0.00  0.03  0.00
  HS02004777HS02004785    1.00   0.00  0.00  0.00  1.00  0.00  0.00  0.00  0.16  0.00
  HS02004785HS02004788    1.00   0.00  0.00  0.00  1.00  0.00  0.00  0.00  0.00  0.00
  HS02004788HS02004792    1.00   0.00  0.00  0.00  1.00  0.00  0.00  0.00  0.86  0.00
  HS02004792HS02004799    1.00   0.00  0.00  0.00  1.00  0.00  0.00  0.00  0.80  0.00
  HS02004799HS02004480    1.00   0.00  0.01  0.00  0.82  0.00  0.16  0.00  0.00  0.00
  HS02004802HS02004478    1.00   0.16  0.00  0.00  0.84  0.00  0.00  0.00  0.03  0.00
  HS02004807HS02004802    1.00   0.15  0.00  0.00  0.83  0.00  0.00  0.01  0.00  0.00
  HS02004817HS02004807    1.00   0.00  0.15  0.00  0.85  0.00  0.00  0.00  0.01  0.00
  HS02004817HS02004824    1.00   0.00  0.00  0.00  1.00  0.00  0.00  0.00  0.74  0.00
  HS02004824HS02004830    1.00   0.00  0.00  0.00  1.00  0.00  0.00  0.00  0.01  0.00
  HS02004830HS02004837    1.00   0.00  0.00  0.00  1.00  0.00  0.00  0.00  0.83  0.00
  HS02004837HS02004842    1.00   0.00  0.00  0.00  1.00  0.00  0.00  0.00  0.14  0.00
  HS02004842HS02004848    1.00   0.00  0.15  0.00  0.85  0.00  0.00  0.00  0.41  0.00
  HS02004848HS02004852    1.00   0.15  0.00  0.00  0.85  0.00  0.00  0.00  0.60  0.00
  HS02004852HS02004856    1.00   0.15  0.01  0.00  0.84  0.00  0.00  0.00  0.55  0.00
  HS02004856HS02004862    1.00   0.00  0.19  0.00  0.81  0.00  0.00  0.00  0.65  0.00
  HS02004862HS02004870    1.00   0.00  0.00  0.00  1.00  0.00  0.00  0.00  0.04  0.00
  HS02004870HS02004876    1.00   0.00  0.00  0.00  1.00  0.00  0.00  0.00  0.80  0.00
  HS02004876HS02004881    1.00   0.00  0.00  0.00  0.80  0.20  0.00  0.00  0.00  0.00
  HS02004881HS02006253    1.00   0.01  0.02  0.00  0.70  0.04  0.00  0.23  0.45  0.00
  HS02004901HS02004770    1.00   0.15  0.00  0.00  0.85  0.00  0.00  0.00  0.00  0.00
  WS02001211WS02001212    1.00   0.00  0.01  0.00  0.99  0.00  0.00  0.00  0.00  0.00
  WS02001212WS02001213    1.00   0.01  0.00  0.00  0.65  0.00  0.35  0.00  0.00  0.00
  WS02001213WS02003059    1.00   0.00  0.00  0.00  1.00  0.00  0.00  0.00  0.00  0.00
  WS02003059WS02003060    1.00   0.00  0.00  0.00  1.00  0.00  0.00  0.00  0.04  0.00
  WS02003060WS02003069    1.00   0.00  0.00  0.00  0.96  0.04  0.00  0.00  0.25  0.00
  WS02003066WSF200        1.00   0.05  0.00  0.00  0.00  0.95  0.00  0.00  0.57  0.00
  WS02003067WS02003066    1.00   0.05  0.00  0.00  0.95  0.00  0.00  0.00  0.00  0.00
  WS02003069WS02003072    1.00   0.00  0.00  0.00  1.00  0.00  0.00  0.00  0.32  0.00
  WS02003072WS02003073    1.00   0.00  0.00  0.00  0.00  0.00  0.00  1.00  0.00  0.00
  WS02004138WS02004139    1.00   0.01  0.00  0.00  0.99  0.00  0.00  0.00  0.97  0.00
  WS02004139WS02001211    1.00   0.00  0.00  0.00  1.00  0.00  0.00  0.00  0.01  0.00
  WS02004401WS02004402    1.00   0.00  0.00  0.00  1.00  0.00  0.00  0.00  0.00  0.00
  WS02004402WS02004403    1.00   0.00  0.00  0.00  1.00  0.00  0.00  0.00  0.00  0.00
  WS02004403WS02004404    1.00   0.00  0.00  0.00  1.00  0.00  0.00  0.00  0.00  0.00
  WS02004404WS02004405    1.00   0.00  0.00  0.00  1.00  0.00  0.00  0.00  0.01  0.00
  WS02004405WS02004406    1.00   0.00  0.00  0.00  1.00  0.00  0.00  0.00  0.00  0.00
  WS02004406WS02004407    1.00   0.00  0.00  0.00  1.00  0.00  0.00  0.00  0.01  0.00
  WS02004407WS02004409    1.00   0.00  0.00  0.00  0.98  0.02  0.00  0.00  0.80  0.00
  WS02004409WS02004410    1.00   0.00  0.00  0.00  1.00  0.00  0.00  0.00  0.01  0.00
  WS02004410WS02004411    1.00   0.00  0.00  0.00  1.00  0.00  0.00  0.00  0.02  0.00
  WS02004411WS02004412    1.00   0.00  0.00  0.00  1.00  0.00  0.00  0.00  0.00  0.00
  WS02004412WS02004413    1.00   0.00  0.00  0.00  1.00  0.00  0.00  0.00  0.02  0.00
  WS02004413WS02003067    1.00   0.00  0.05  0.00  0.00  0.00  0.95  0.00  0.00  0.00
  WS02006109WS02006110    1.00   0.00  0.00  0.00  1.00  0.00  0.00  0.00  0.00  0.00
  WS02006110WS02006113    1.00   0.00  0.00  0.00  1.00  0.00  0.00  0.00  0.00  0.00
  WS02006111WS02006112    1.00   0.00  0.00  0.00  1.00  0.00  0.00  0.00  0.71  0.00
  WS02006112WS02006115    1.00   0.00  0.00  0.00  1.00  0.00  0.00  0.00  0.00  0.00
  WS02006113WS02006111    1.00   0.00  0.00  0.00  0.28  0.72  0.00  0.00  0.17  0.00
  WS02006115WS02006116    1.00   0.00  0.00  0.00  1.00  0.00  0.00  0.00  0.00  0.00
  WS02006116WS02004401    1.00   0.00  0.00  0.00  1.00  0.00  0.00  0.00  0.00  0.00
  WS02006228WS02006109    1.00   0.00  0.00  0.00  1.00  0.00  0.00  0.00  0.00  0.00
  WS02006229WS02006228    1.00   0.00  0.00  0.00  1.00  0.00  0.00  0.00  0.00  0.00
  WS02006230WS02006229    1.00   0.00  0.00  0.00  1.00  0.00  0.00  0.00  0.01  0.00
  WS02006231WS02006230    1.00   0.00  0.00  0.00  0.65  0.00  0.35  0.00  0.00  0.00
  WS02006232WS02006231    1.00   0.00  0.00  0.00  1.00  0.00  0.00  0.00  0.01  0.00
  WS02006234WS02006232    1.00   0.00  0.00  0.00  1.00  0.00  0.00  0.00  0.03  0.00
  WS02006235WS02006234    1.00   0.01  0.00  0.00  0.95  0.00  0.04  0.00  0.00  0.00
  WS02006238WS02006235    1.00   0.01  0.00  0.00  0.99  0.00  0.00  0.00  0.00  0.00
  WS02006239WS02006238    1.00   0.01  0.00  0.00  0.99  0.00  0.00  0.00  0.02  0.00
  WS02006240WS02006239    1.00   0.01  0.00  0.00  0.92  0.00  0.00  0.08  0.03  0.00
  WS02006242WS02006240    1.00   0.01  0.00  0.00  0.99  0.00  0.00  0.00  0.00  0.00
  WS02006243WS02006242    1.00   0.01  0.00  0.00  0.99  0.00  0.00  0.00  0.26  0.00
  WS02006245WS02006243    1.00   0.01  0.00  0.00  0.90  0.00  0.00  0.09  0.01  0.00
  WS02006247WS02006245    1.00   0.01  0.00  0.00  0.98  0.00  0.00  0.01  0.00  0.00
  WS02006248WS02006247    1.00   0.01  0.00  0.00  0.99  0.00  0.00  0.00  0.27  0.00
  WS02006249WS02006248    1.00   0.00  0.01  0.00  0.83  0.00  0.16  0.00  0.00  0.00
  WS02006251WS02006249    1.00   0.00  0.00  0.00  1.00  0.00  0.00  0.00  0.27  0.00
  WS02006252WS02006251    1.00   0.01  0.07  0.00  0.29  0.00  0.64  0.00  0.00  0.00
  WS02006253WS02006251    1.00   0.01  0.00  0.00  0.99  0.00  0.00  0.00  0.00  0.00
  WS02006256WS02006235    1.00   0.01  0.00  0.00  0.99  0.00  0.00  0.00  0.00  0.00
  WS02006280WS02006229    1.00   0.16  0.00  0.00  0.22  0.06  0.00  0.56  0.01  0.00
  WS02006284WS02006280    1.00   0.16  0.00  0.00  0.16  0.01  0.00  0.67  0.00  0.00
  WS02006287WS02006284    1.00   0.14  0.04  0.00  0.41  0.41  0.00  0.00  0.55  0.00
  WSF200WS02003060        1.00   0.00  0.05  0.00  0.48  0.46  0.00  0.00  0.35  0.00
  YS02001580YS02001583    1.00   0.27  0.45  0.00  0.29  0.00  0.00  0.00  0.57  0.00
  YS02001583YS02001586    1.00   0.19  0.38  0.00  0.42  0.00  0.00  0.00  0.57  0.00
  YS02001586YS02001590    1.00   0.15  0.00  0.00  0.65  0.08  0.00  0.11  0.45  0.00
  YS02001590YS02001593    1.00   0.15  0.00  0.00  0.20  0.00  0.65  0.00  0.00  0.00
  YS02001593YS02001596    1.00   0.16  0.00  0.00  0.22  0.01  0.00  0.60  0.04  0.00
  YS02001596YS02001600    1.00   0.16  0.00  0.00  0.30  0.03  0.00  0.51  0.06  0.00
  YS02001600YS02001601    1.00   0.16  0.01  0.00  0.84  0.00  0.00  0.00  0.44  0.00
  YS02001601YS02001602    1.00   0.15  0.01  0.00  0.84  0.00  0.00  0.00  0.00  0.00
  YS02001602YS02001605    1.00   0.16  0.00  0.00  0.84  0.00  0.00  0.00  0.00  0.00
  YS02001605YS02001607    1.00   0.16  0.00  0.00  0.84  0.00  0.00  0.00  0.00  0.00
  YS02001607YS02001610    1.00   0.16  0.00  0.00  0.84  0.00  0.00  0.00  0.02  0.00
  YS02001610YS02001613    1.00   0.16  0.00  0.00  0.84  0.00  0.00  0.00  0.01  0.00
  YS02001613YS02001616    1.00   0.15  0.00  0.00  0.85  0.00  0.00  0.00  0.01  0.00
  YS02001616YS02001619    1.00   0.15  0.00  0.00  0.85  0.00  0.00  0.00  0.00  0.00
  YS02001619YS02001622    1.00   0.15  0.00  0.00  0.85  0.00  0.00  0.00  0.06  0.00
  YS02001622YS02001625    1.00   0.15  0.00  0.00  0.85  0.00  0.00  0.00  0.06  0.00
  YS02001625YS02001629    1.00   0.16  0.05  0.00  0.41  0.00  0.39  0.00  0.00  0.00
  YS02001629YS02163301    1.00   0.17  0.01  0.00  0.82  0.00  0.00  0.00  0.00  0.00
  YS02001633YS02163601    1.00   0.00  0.00  0.00  1.00  0.00  0.00  0.00  0.20  0.00
  YS02001641YS02001644    1.00   0.00  0.00  0.00  1.00  0.00  0.00  0.00  0.00  0.00
  YS02001644YS02001647    1.00   0.00  0.19  0.00  0.81  0.00  0.00  0.00  0.00  0.00
  YS02001647YS02001649    1.00   0.00  0.19  0.00  0.69  0.12  0.00  0.00  0.40  0.00
  YS02001649YS02001757    1.00   0.00  0.00  0.00  0.90  0.10  0.00  0.00  0.42  0.00
  YS02001652YS02001649    1.00   0.00  0.00  0.00  0.96  0.04  0.00  0.00  0.55  0.00
  YS02001655YS02001652    1.00   0.00  0.00  0.00  0.45  0.01  0.00  0.54  0.03  0.00
  YS02001658YS02001655    1.00   0.00  0.16  0.00  0.71  0.13  0.00  0.00  0.42  0.00
  YS02001661YS02001658    1.00   0.16  0.00  0.00  0.46  0.37  0.00  0.00  0.60  0.00
  YS02001664YS02001661    1.00   0.15  0.00  0.00  0.65  0.19  0.00  0.00  0.80  0.00
  YS02001745YS02001748    1.00   0.00  0.00  0.00  0.33  0.02  0.00  0.65  0.26  0.00
  YS02001748YS02001751    1.00   0.00  0.00  0.00  0.89  0.11  0.00  0.00  0.57  0.00
  YS02001751YS02001754    1.00   0.00  0.00  0.00  0.44  0.01  0.00  0.56  0.02  0.00
  YS02001754YS02001757    1.00   0.00  0.00  0.00  1.00  0.00  0.00  0.00  0.62  0.00
  YS02001757CaochengTiaoxuchi    1.00   0.00  0.00  0.00  0.74  0.26  0.00  0.00  0.20  0.00
  YS02001759YS02001757    1.00   0.00  0.00  0.00  1.00  0.00  0.00  0.00  0.48  0.00
  YS02001762YS02001759    1.00   0.00  0.00  0.00  1.00  0.00  0.00  0.00  0.04  0.00
  YS02001765YS02001762    1.00   0.00  0.00  0.00  1.00  0.00  0.00  0.00  0.46  0.00
  YS02001767YS02001765    1.00   0.00  0.00  0.00  1.00  0.00  0.00  0.00  0.00  0.00
  YS02001770YS02001767    1.00   0.00  0.00  0.00  1.00  0.00  0.00  0.00  0.00  0.00
  YS02001774YS02001770    1.00   0.00  0.16  0.00  0.84  0.00  0.00  0.00  0.04  0.00
  YS02001779YS02001774    1.00   0.00  0.00  0.00  1.00  0.00  0.00  0.00  0.59  0.00
  YS02001783YS02001784    1.00   0.00  0.20  0.00  0.80  0.00  0.00  0.00  0.41  0.00
  YS02001784YS02001785    1.00   0.00  0.00  0.00  1.00  0.00  0.00  0.00  0.22  0.00
  YS02001786YS02001788    1.00   0.00  0.00  0.00  0.65  0.35  0.00  0.00  0.00  0.00
  YS02001788YS02001790    1.00   0.00  0.00  0.00  0.28  0.72  0.00  0.00  0.74  0.00
  YS02001790YS02001791    1.00   0.00  0.00  0.00  0.02  0.98  0.00  0.00  0.21  0.00
  YS02001791YS02001793    1.00   0.00  0.00  0.00  0.01  0.99  0.00  0.00  0.01  0.00
  YS02001793JiankangQianchi    1.00   0.00  0.00  0.00  0.16  0.84  0.00  0.00  0.19  0.00
  YS02001882YS02001884    1.00   0.17  0.01  0.00  0.82  0.00  0.00  0.00  0.00  0.00
  YS02001884YS02001887    1.00   0.05  0.09  0.00  0.85  0.00  0.00  0.00  0.00  0.00
  YS02001887YS02001890    1.00   0.00  0.00  0.00  0.99  0.00  0.01  0.00  0.00  0.00
  YS02001890YS02001895    1.00   0.00  0.18  0.00  0.82  0.00  0.00  0.00  0.00  0.00
  YS02001895YS02001898    1.00   0.18  0.00  0.00  0.78  0.00  0.03  0.00  0.00  0.00
  YS02001898YS02001901    1.00   0.19  0.00  0.00  0.81  0.00  0.00  0.00  0.01  0.00
  YS02001901YS02001904    1.00   0.18  0.00  0.00  0.82  0.00  0.00  0.00  0.00  0.00
  YS02001904YS02001907    1.00   0.00  0.18  0.00  0.82  0.00  0.00  0.00  0.00  0.00
  YS02001907YS02006553    1.00   0.00  0.01  0.00  0.99  0.00  0.00  0.00  0.00  0.00
  YS02001910YS02001907    1.00   0.00  0.00  0.00  0.99  0.00  0.00  0.01  0.16  0.00
  YS02001915YS02001910    1.00   0.00  0.00  0.00  0.98  0.02  0.00  0.00  0.20  0.00
  YS02001918YS02001915    1.00   0.00  0.00  0.00  1.00  0.00  0.00  0.00  0.67  0.00
  YS02001920YS02001918    1.00   0.00  0.00  0.00  1.00  0.00  0.00  0.00  0.01  0.00
  YS02001923YS02001920    1.00   0.00  0.00  0.00  1.00  0.00  0.00  0.00  0.89  0.00
  YS02001926YS02001923    1.00   0.00  0.09  0.00  0.09  0.00  0.81  0.00  0.00  0.00
  YS02001929YS02001926    1.00   0.00  0.15  0.00  0.85  0.00  0.00  0.00  0.75  0.00
  YS02006553YS02006556    1.00   0.00  0.00  0.00  1.00  0.00  0.00  0.00  0.04  0.00
  YS02006556YS02006558    1.00   0.00  0.00  0.00  1.00  0.00  0.00  0.00  0.00  0.00
  YS02006558YS02006561    1.00   0.20  0.00  0.00  0.09  0.71  0.00  0.00  0.24  0.00
  YS02006561YS02001783    1.00   0.20  0.00  0.00  0.13  0.67  0.00  0.00  0.58  0.00
  YS02163301YS02001633    1.00   0.00  0.17  0.00  0.83  0.00  0.00  0.00  0.00  0.00
  YS02163601YS02164001    1.00   0.00  0.11  0.00  0.89  0.00  0.00  0.00  0.00  0.00
  YS02164001YS02001641    1.00   0.00  0.11  0.00  0.88  0.00  0.00  0.00  0.07  0.00
  YSB1154YSB6556          1.00   0.15  0.00  0.00  0.85  0.00  0.00  0.00  0.02  0.00
  YSB1171HS02004479       1.00   0.02  0.00  0.00  0.96  0.01  0.00  0.02  0.13  0.00
  YSB1174YSB1171          1.00   0.03  0.10  0.00  0.87  0.00  0.00  0.00  0.00  0.00
  YSB6556YSB1171          1.00   0.02  0.13  0.00  0.85  0.00  0.00  0.00  0.00  0.00
  
  
  *************************
  Conduit Surcharge Summary
  *************************
  
  ----------------------------------------------------------------------------
                                                           Hours        Hours 
                         --------- Hours Full --------   Above Full   Capacity
  Conduit                Both Ends  Upstream  Dnstream   Normal Flow   Limited
  ----------------------------------------------------------------------------
  HS02004478WS02006287        0.52      0.52      0.70      0.01         0.01
  HS02004479HS02004480        0.71      0.71      0.73      0.01         0.01
  HS02004480HS02004478        0.63      0.70      0.63      1.70         0.63
  HS02004770HS02004777        0.61      0.62      0.62      0.09         0.07
  HS02004777HS02004785        0.57      0.57      0.62      0.01         0.01
  HS02004785HS02004788        0.55      0.57      0.55      1.51         0.51
  HS02004788HS02004792        0.55      0.55      0.67      0.01         0.01
  HS02004792HS02004799        0.67      0.67      0.80      0.01         0.01
  HS02004799HS02004480        0.70      0.70      0.80      0.90         0.01
  HS02004802HS02004478        0.64      0.64      0.72      0.10         0.01
  HS02004807HS02004802        0.69      0.69      0.71      0.29         0.29
  HS02004817HS02004807        0.69      0.69      1.29      0.01         0.01
  HS02004817HS02004824        0.55      0.55      1.29      0.01         0.01
  HS02004824HS02004830        0.51      0.51      0.55      0.01         0.01
  HS02004830HS02004837        0.47      0.47      0.51      0.01         0.01
  HS02004837HS02004842        0.47      0.47      0.62      0.01         0.01
  HS02004842HS02004848        0.45      0.45      0.62      0.01         0.01
  HS02004848HS02004852        0.45      0.45      0.46      0.02         0.01
  HS02004852HS02004856        0.46      0.46      0.48      0.02         0.01
  HS02004856HS02004862        0.44      0.44      0.46      0.01         0.01
  HS02004862HS02004870        0.46      0.46      0.47      0.26         0.21
  HS02004870HS02004876        0.47      0.47      0.53      0.01         0.01
  HS02004876HS02004881        0.49      0.53      0.49      1.54         0.49
  HS02004881HS02006253        0.49      0.49      1.67      0.01         0.01
  HS02004901HS02004770        0.62      0.62      0.62      0.01         0.01
  WS02003072WS02003073        0.01      0.01      0.01      3.39         0.01
  WS02004401WS02004402        1.64      1.64      1.65      1.52         1.51
  WS02004402WS02004403        1.65      1.65      1.65      1.64         1.63
  WS02004403WS02004404        1.65      1.65      1.71      0.01         0.02
  WS02004404WS02004405        1.70      1.71      1.70      4.41         1.69
  WS02004405WS02004406        1.68      1.70      1.68      1.80         1.68
  WS02004406WS02004407        0.01      0.01      1.68      0.01         0.01
  WS02004407WS02004409        0.01      0.01      0.99      0.01         0.01
  WS02004409WS02004410        0.95      0.99      0.95      1.59         0.95
  WS02004410WS02004411        0.91      0.95      0.91      1.62         0.91
  WS02004411WS02004412        0.82      0.91      0.82      1.63         0.82
  WS02004412WS02004413        0.82      0.82      1.42      0.01         0.01
  WS02004413WS02003067        0.01      0.01      1.42      0.01         0.01
  WS02006109WS02006110        1.77      1.78      2.40      1.79         0.01
  WS02006110WS02006113        1.33      1.33      2.32      0.30         0.01
  WS02006111WS02006112        1.29      1.30      3.19      0.01         0.01
  WS02006112WS02006115        1.60      1.60      1.88      0.01         0.01
  WS02006113WS02006111        1.31      1.33      1.31      1.53         1.31
  WS02006115WS02006116        1.61      1.61      1.61      1.60         1.58
  WS02006116WS02004401        1.63      1.63      1.64      1.64         1.61
  WS02006228WS02006109        2.23      2.40      2.23      3.58         2.23
  WS02006229WS02006228        2.21      2.30      2.21      3.15         2.20
  WS02006230WS02006229        2.69      2.93      2.69      4.28         1.61
  WS02006231WS02006230        1.70      1.70      1.73      3.98         1.05
  WS02006232WS02006231        1.72      1.72      2.23      0.01         0.17
  WS02006234WS02006232        1.93      1.93      2.23      0.01         0.01
  WS02006235WS02006234        1.91      1.91      2.02      3.68         1.01
  WS02006238WS02006235        2.06      2.06      2.20      0.01         0.36
  WS02006239WS02006238        2.10      2.14      2.11      1.62         0.36
  WS02006240WS02006239        1.97      2.01      1.99      1.62         0.28
  WS02006242WS02006240        1.97      1.97      2.27      1.93         0.91
  WS02006243WS02006242        1.99      1.99      2.16      0.01         0.01
  WS02006245WS02006243        1.95      1.96      1.96      0.79         0.30
  WS02006247WS02006245        1.94      2.00      1.94      3.33         0.79
  WS02006248WS02006247        1.92      1.93      1.98      0.01         0.01
  WS02006249WS02006248        1.89      1.89      1.94      2.03         0.01
  WS02006251WS02006249        1.93      1.95      1.94      2.19         1.67
  WS02006252WS02006251        2.44      2.44      2.48      1.45         0.01
  WS02006253WS02006251        1.93      1.94      1.98      0.84         0.03
  WS02006256WS02006235        3.98      3.99      5.72      0.46         0.01
  WS02006280WS02006229        0.84      0.84      0.94      0.01         0.01
  WS02006284WS02006280        0.73      0.73      0.82      0.01         0.01
  WS02006287WS02006284        0.63      0.63      0.74      0.33         0.33
  YS02001580YS02001583        0.66      0.66      0.72      0.01         0.01
  YS02001583YS02001586        0.67      0.67      0.83      0.01         0.01
  YS02001586YS02001590        0.84      0.84      0.92      0.01         0.01
  YS02001590YS02001593        0.92      0.92      0.94      0.96         0.01
  YS02001593YS02001596        0.93      0.93      1.06      0.01         0.01
  YS02001596YS02001600        1.11      1.11      1.27      0.01         0.01
  YS02001600YS02001601        1.34      1.34      1.56      0.01         0.01
  YS02001601YS02001602        1.49      1.49      1.59      1.14         0.01
  YS02001602YS02001605        1.46      1.46      1.49      2.21         0.01
  YS02001605YS02001607        1.43      1.46      1.44      1.48         1.41
  YS02001607YS02001610        0.97      0.97      1.01      0.01         0.01
  YS02001610YS02001613        0.97      0.97      1.01      0.01         0.01
  YS02001613YS02001616        0.91      0.91      0.97      0.01         0.01
  YS02001616YS02001619        0.90      0.90      0.91      0.01         0.02
  YS02001619YS02001622        0.90      0.90      0.90      0.85         0.78
  YS02001622YS02001625        0.90      0.90      1.20      0.01         0.01
  YS02001625YS02001629        0.84      0.84      1.20      0.01         0.01
  YS02001629YS02163301        1.23      1.23      1.25      0.18         0.19
  YS02001633YS02163601        1.28      1.28      1.32      0.48         0.47
  YS02001641YS02001644        1.25      1.26      1.25      1.54         1.25
  YS02001644YS02001647        0.92      0.92      1.25      0.04         0.01
  YS02001647YS02001649        0.92      0.92      1.22      0.01         0.01
  YS02001649YS02001757        1.21      1.22      1.50      0.37         0.34
  YS02001652YS02001649        0.85      0.85      1.22      0.01         0.01
  YS02001655YS02001652        0.30      0.30      0.74      0.01         0.01
  YS02001658YS02001655        0.17      0.17      0.30      0.01         0.01
  YS02001661YS02001658        0.01      0.01      0.17      0.01         0.01
  YS02001664YS02001661        0.01      0.01      0.04      0.01         0.01
  YS02001745YS02001748        0.01      0.01      0.07      0.01         0.01
  YS02001748YS02001751        0.14      0.14      0.19      0.01         0.01
  YS02001751YS02001754        0.19      0.19      0.37      0.01         0.01
  YS02001754YS02001757        0.53      0.53      1.50      0.01         0.01
  YS02001757CaochengTiaoxuchi        1.23      1.50      2.38      0.44         0.13
  YS02001759YS02001757        1.21      1.21      1.50      0.02         0.05
  YS02001762YS02001759        1.18      1.18      1.21      0.01         0.03
  YS02001765YS02001762        1.14      1.14      1.18      0.01         0.01
  YS02001767YS02001765        1.07      1.07      1.14      0.04         0.07
  YS02001770YS02001767        1.05      1.05      1.07      0.57         0.51
  YS02001774YS02001770        0.95      0.95      1.16      0.01         0.01
  YS02001779YS02001774        0.39      0.39      1.16      0.01         0.01
  YS02001783YS02001784        0.56      0.59      0.56      0.72         0.56
  YS02001784YS02001785        0.46      0.56      0.46      0.96         0.46
  YS02001786YS02001788        0.07      0.46      0.07      0.82         0.07
  YS02001788YS02001790        0.07      0.07      0.08      0.01         0.01
  YS02001790YS02001791        0.07      0.08      0.07      0.55         0.07
  YS02001791YS02001793        0.07      0.07      0.09      0.01         0.01
  YS02001793JiankangQianchi        0.09      0.09      0.46      0.01         0.01
  YS02001882YS02001884        0.53      0.53      0.54      0.01         0.01
  YS02001884YS02001887        0.57      0.57      0.58      0.01         0.01
  YS02001887YS02001890        0.59      0.59      0.60      0.11         0.01
  YS02001890YS02001895        0.52      0.52      0.62      0.01         0.01
  YS02001895YS02001898        0.52      0.52      0.52      0.01         0.01
  YS02001898YS02001901        0.53      0.53      0.56      0.01         0.01
  YS02001901YS02001904        0.55      0.55      0.56      0.01         0.01
  YS02001904YS02001907        0.55      0.55      0.80      0.01         0.01
  YS02001907YS02006553        0.97      0.97      1.03      0.01         0.01
  YS02001910YS02001907        0.62      0.62      0.78      0.01         0.01
  YS02001915YS02001910        0.53      0.53      0.62      0.01         0.01
  YS02001918YS02001915        0.45      0.45      0.53      0.01         0.01
  YS02001920YS02001918        0.45      0.45      0.46      0.01         0.01
  YS02001923YS02001920        0.39      0.39      0.46      0.01         0.01
  YS02001926YS02001923        0.06      0.06      0.12      0.01         0.01
  YS02001929YS02001926        0.01      0.01      0.12      0.01         0.01
  YS02006553YS02006556        0.70      0.70      0.80      0.01         0.01
  YS02006556YS02006558        0.74      0.74      0.82      0.01         0.01
  YS02006558YS02006561        0.48      0.69      0.48      0.91         0.48
  YS02006561YS02001783        0.41      0.41      0.59      0.01         0.01
  YS02163301YS02001633        1.25      1.25      1.29      0.01         0.01
  YS02163601YS02164001        1.25      1.25      1.32      0.05         0.01
  YS02164001YS02001641        1.25      1.25      1.26      0.76         0.72
  YSB1154YSB6556              0.77      0.77      0.92      0.01         0.01
  YSB1171HS02004479           0.66      0.66      0.92      0.01         0.01
  YSB1174YSB1171              0.83      0.83      1.19      0.01         0.01
  YSB6556YSB1171              0.77      0.77      1.36      0.01         0.01
  
  
  ***************
  Pumping Summary
  ***************
  
  ---------------------------------------------------------------------------------------------------------
                                                  Min       Avg       Max     Total     Power    % Time Off
                        Percent   Number of      Flow      Flow      Flow    Volume     Usage    Pump Curve
  Pump                 Utilized   Start-Ups       LPS       LPS       LPS  10^6 ltr     Kw-hr    Low   High
  ---------------------------------------------------------------------------------------------------------
  CC-R1                   64.02          10      0.00    548.75    683.00     6.784    119.55    0.0   68.4
  CC-R2                   30.62           9      0.00    604.28    683.00     3.472     62.02    0.0   61.1
  CC-S1                   66.56           9      0.00    170.54    200.00     2.189     13.71    0.0   37.2
  CC-S2                   35.98           8      0.00    161.65    200.00     1.140      7.36    0.0   32.5
  JK-R1                   72.14           9      0.00    221.05   1000.00     3.295     13.59    0.0    0.0
  JK-R2                   33.38          11      0.00    399.09   1000.00     2.058      8.20    0.0    0.0
  JK-S                    41.57           9      0.00     53.00    300.00     0.395      8.58    0.0    0.0
  XR-1                    97.20           1      0.00     95.00     95.00     1.995      8.83    0.0    0.0
  XR-2                    91.96           1      0.00     95.00     95.00     1.887      8.00    0.0    0.0
  XR-3                     0.00           0      0.00      0.00      0.00     0.000      0.00    0.0    0.0
  XR-4                     0.00           0      0.00      0.00      0.00     0.000      0.00    0.0    0.0
  

  Analysis begun on:  Mon Aug 22 16:57:02 2022
  Analysis ended on:  Mon Aug 22 16:57:06 2022
  Total elapsed time: 00:00:04