
  OWA STORM WATER MANAGEMENT MODEL - VERSION v5.1.14 (OWA 2022-07-31)
  --------------------------------------------------------------

  WARNING 04: minimum elevation drop used for Conduit WS02004404WS02004405
  WARNING 03: negative offset ignored for Link YS02001904YS02001907
  
  *********************************************************
  NOTE: The summary statistics displayed in this report are
  based on results found at every computational time step,  
  not just on results from each reporting time step.
  *********************************************************
  
  ****************
  Analysis Options
  ****************
  Flow Units ............... LPS
  Process Models:
    Rainfall/Runoff ........ YES
    RDII ................... NO
    Snowmelt ............... NO
    Groundwater ............ NO
    Flow Routing ........... YES
    Ponding Allowed ........ NO
    Water Quality .......... NO
  Infiltration Method ...... HORTON
  Flow Routing Method ...... DYNWAVE
  Surcharge Method ......... EXTRAN
  Starting Date ............ 01/01/2000 00:00:00
  Ending Date .............. 01/01/2000 06:00:00
  Antecedent Dry Days ...... 8.0
  Report Time Step ......... 00:01:00
  Wet Time Step ............ 00:01:00
  Dry Time Step ............ 00:01:00
  Routing Time Step ........ 30.00 sec
  Variable Time Step ....... YES
  Maximum Trials ........... 8
  Number of Threads ........ 4
  Head Tolerance ........... 0.001500 m
  
  
  **************************        Volume         Depth
  Runoff Quantity Continuity     hectare-m            mm
  **************************     ---------       -------
  Total Precipitation ......         4.315        71.232
  Evaporation Loss .........         0.000         0.000
  Infiltration Loss ........         0.246         4.062
  Surface Runoff ...........         4.004        66.099
  Final Storage ............         0.066         1.082
  Continuity Error (%) .....        -0.015
  
  
  **************************        Volume        Volume
  Flow Routing Continuity        hectare-m      10^6 ltr
  **************************     ---------     ---------
  Dry Weather Inflow .......         0.472         4.722
  Wet Weather Inflow .......         4.003        40.032
  Groundwater Inflow .......         0.000         0.000
  RDII Inflow ..............         0.000         0.000
  External Inflow ..........         0.078         0.784
  External Outflow .........         2.531        25.306
  Flooding Loss ............         1.986        19.862
  Evaporation Loss .........         0.000         0.000
  Exfiltration Loss ........         0.000         0.000
  Initial Stored Volume ....         0.303         3.031
  Final Stored Volume ......         0.485         4.849
  Continuity Error (%) .....        -2.981
  
  
  *************************
  Highest Continuity Errors
  *************************
  Node JK-storage (-29.25%)
  Node YS02001884 (5.52%)
  Node YS02001583 (-5.21%)
  Node HS02004842 (1.46%)
  Node WS02003059 (1.01%)
  
  
  ***************************
  Time-Step Critical Elements
  ***************************
  Link WS02006280WS02006229 (18.59%)
  Link WS02006235WS02006234 (18.09%)
  Link YS02001793JiankangQianchi (16.17%)
  Link WS02004404WS02004405 (13.58%)
  Link WS02003066WSF200 (10.20%)
  
  
  ********************************
  Highest Flow Instability Indexes
  ********************************
  Link WS02006111WS02006112 (48)
  Link WS02006113WS02006111 (48)
  Link WS02006110WS02006113 (40)
  Link WS02006238WS02006235 (31)
  Link WS02004404WS02004405 (29)
  
  
  *************************
  Routing Time Step Summary
  *************************
  Minimum Time Step           :     0.50 sec
  Average Time Step           :     2.02 sec
  Maximum Time Step           :     8.46 sec
  Percent in Steady State     :     0.00
  Average Iterations per Step :     3.61
  Percent Not Converging      :    12.01
  
  
  ***************************
  Subcatchment Runoff Summary
  ***************************
  
  ------------------------------------------------------------------------------------------------------------------------------
                            Total      Total      Total      Total     Imperv       Perv      Total       Total     Peak  Runoff
                           Precip      Runon       Evap      Infil     Runoff     Runoff     Runoff      Runoff   Runoff   Coeff
  Subcatchment                 mm         mm         mm         mm         mm         mm         mm    10^6 ltr      LPS
  ------------------------------------------------------------------------------------------------------------------------------
  sub0                      71.23       0.00       0.00       1.02      64.98       3.96      68.95        0.06    30.64   0.968
  sub1                      71.23       0.00       0.00       1.75      62.09       6.09      68.17        0.45   229.47   0.957
  sub10                     71.23       0.00       0.00       1.23      64.20       4.47      68.66        0.76   387.13   0.964
  sub11                     71.23       0.00       0.00       1.21      64.23       4.49      68.72        0.80   419.79   0.965
  sub12                     71.23       0.00       0.00       1.98      60.78       7.29      68.06        0.59   324.92   0.956
  sub14                     71.23       0.00       0.00       1.39      63.52       5.03      68.54        0.65   339.03   0.962
  sub15                     71.23       0.00       0.00       5.42      48.85      15.96      64.81        1.11   546.71   0.910
  sub16                     71.23       0.00       0.00       5.61      46.80      17.90      64.70        0.68   355.44   0.908
  sub17                     71.23       0.00       0.00       5.47      47.49      17.33      64.82        0.56   289.86   0.910
  sub2                      71.23       0.00       0.00       7.71      43.91      18.64      62.55        0.58   248.22   0.878
  sub22                     71.23       0.00       0.00       8.20      39.80      22.43      62.23        3.93  1843.42   0.874
  sub23                     71.23       0.00       0.00       6.69      43.99      19.67      63.66        3.04  1502.98   0.894
  sub3                      71.23       0.00       0.00       8.15      43.83      17.98      61.81        1.39   540.93   0.868
  sub4                      71.23       0.00       0.00       1.95      61.77       5.89      67.66        1.41   593.05   0.950
  sub5                      71.23       0.00       0.00       1.08      64.88       3.91      68.79        0.78   393.84   0.966
  sub60                     71.23       0.00       0.00       1.86      61.45       6.69      68.14        0.90   475.11   0.957
  sub61                     71.23       0.00       0.00       2.70      57.96       9.41      67.38        1.24   660.19   0.946
  sub62                     71.23       0.00       0.00       1.24      64.18       4.46      68.64        1.88   953.87   0.964
  sub63                     71.23       0.00       0.00       4.97      49.58      15.69      65.26        1.48   764.50   0.916
  sub64                     71.23       0.00       0.00       2.52      59.27       8.17      67.44        1.62   795.77   0.947
  sub65                     71.23       0.00       0.00       2.18      60.63       7.08      67.71        1.86   895.71   0.951
  sub66                     71.23       0.00       0.00       6.13      49.37      14.52      63.90        2.98  1212.45   0.897
  sub67                     71.23       0.00       0.00       1.19      64.27       4.51      68.77        1.28   691.89   0.965
  sub68                     71.23       0.00       0.00       2.23      60.03       7.74      67.77        1.86   969.76   0.951
  sub69                     71.23       0.00       0.00       2.01      60.34       8.68      69.02        2.56  1192.93   0.969
  sub7                      71.23       0.00       0.00       1.37      63.55       5.05      68.59        0.23   122.98   0.963
  sub70                     71.23       0.00       0.00       6.64      46.71      17.58      64.29        1.86   683.37   0.903
  sub71                     71.23       0.00       0.00       1.27      64.11       4.43      68.53        1.79   862.85   0.962
  sub72                     71.23       0.00       0.00       1.13      64.69       3.86      68.54        0.94   425.55   0.962
  sub8                      71.23       0.00       0.00       1.38      63.53       5.03      68.56        0.44   229.24   0.962
  sub9                      71.23       0.00       0.00       1.38      63.52       5.03      68.55        0.33   171.87   0.962
  
  
  ******************
  Node Depth Summary
  ******************
  
  ---------------------------------------------------------------------------------
                                 Average  Maximum  Maximum  Time of Max    Reported
                                   Depth    Depth      HGL   Occurrence   Max Depth
  Node                 Type       Meters   Meters   Meters  days hr:min      Meters
  ---------------------------------------------------------------------------------
  HS02004478           JUNCTION     0.33     1.59    10.81     0  02:02        1.58
  HS02004479           JUNCTION     0.42     1.70    10.90     0  01:56        1.66
  HS02004480           JUNCTION     0.39     1.68    10.92     0  01:56        1.63
  HS02004770           JUNCTION     0.38     1.42    11.25     0  01:53        1.42
  HS02004777           JUNCTION     0.40     1.48    11.28     0  01:53        1.45
  HS02004785           JUNCTION     0.28     1.49    11.39     0  01:53        1.34
  HS02004788           JUNCTION     0.25     1.42    11.32     0  01:53        1.34
  HS02004792           JUNCTION     0.33     1.60    11.12     0  01:50        1.60
  HS02004799           JUNCTION     0.46     1.76    10.97     0  01:56        1.76
  HS02004802           JUNCTION     0.44     1.80    10.93     0  02:02        1.79
  HS02004807           JUNCTION     0.42     1.92    11.09     0  01:56        1.92
  HS02004817           JUNCTION     0.73     2.39    11.24     0  01:56        2.35
  HS02004824           JUNCTION     0.27     1.98    11.38     0  01:56        1.91
  HS02004830           JUNCTION     0.26     2.00    11.47     0  01:56        1.86
  HS02004837           JUNCTION     0.22     1.94    11.52     0  01:56        1.77
  HS02004842           JUNCTION     0.52     2.22    11.49     0  01:56        2.08
  HS02004848           JUNCTION     0.20     2.06    11.66     0  01:56        1.76
  HS02004852           JUNCTION     0.21     2.12    11.63     0  01:56        1.81
  HS02004856           JUNCTION     0.27     2.07    11.50     0  01:56        1.87
  HS02004862           JUNCTION     0.23     2.00    11.38     0  01:56        1.85
  HS02004870           JUNCTION     0.22     1.96    11.25     0  01:56        1.83
  HS02004876           JUNCTION     0.28     2.02    11.05     0  01:56        1.92
  HS02004881           JUNCTION     0.20     1.76    10.79     0  01:56        1.69
  HS02004901           JUNCTION     0.38     1.42    11.24     0  01:53        1.42
  WS02001211           JUNCTION     0.67     0.81     5.65     0  02:07        0.81
  WS02001212           JUNCTION     0.42     0.57     5.64     0  02:07        0.57
  WS02001213           JUNCTION     0.67     0.87     5.63     0  02:07        0.87
  WS02003059           JUNCTION     0.74     0.94     5.63     0  02:06        0.94
  WS02003060           JUNCTION     0.48     0.69     5.62     0  02:06        0.69
  WS02003066           JUNCTION     0.30     0.46     6.01     0  02:05        0.46
  WS02003067           JUNCTION     0.66     0.89     6.21     0  02:05        0.89
  WS02003069           JUNCTION     0.54     0.78     5.36     0  02:06        0.78
  WS02003072           JUNCTION     0.59     0.81     5.18     0  02:07        0.81
  WS02003073           JUNCTION     0.36     0.52     4.58     0  02:07        0.52
  WS02004138           JUNCTION     0.13     0.14     7.39     0  00:29        0.14
  WS02004139           JUNCTION     0.61     0.74     5.65     0  02:08        0.74
  WS02004401           JUNCTION     1.00     1.85     7.85     0  02:05        1.85
  WS02004402           JUNCTION     1.01     1.80     7.76     0  02:05        1.79
  WS02004403           JUNCTION     1.00     1.72     7.65     0  02:04        1.72
  WS02004404           JUNCTION     1.05     1.73     7.58     0  02:05        1.72
  WS02004405           JUNCTION     1.04     1.68     7.53     0  02:05        1.68
  WS02004406           JUNCTION     1.01     1.57     7.40     0  02:05        1.56
  WS02004407           JUNCTION     0.39     0.93     7.24     0  02:05        0.93
  WS02004409           JUNCTION     0.76     1.39     7.16     0  02:05        1.38
  WS02004410           JUNCTION     0.75     1.30     7.02     0  02:05        1.28
  WS02004411           JUNCTION     0.73     1.20     6.88     0  02:05        1.20
  WS02004412           JUNCTION     0.71     1.10     6.74     0  02:05        1.10
  WS02004413           JUNCTION     0.83     1.14     6.61     0  02:05        1.14
  WS02006109           JUNCTION     1.35     2.64     9.26     0  01:53        2.64
  WS02006110           JUNCTION     1.23     2.39     8.97     0  02:03        2.38
  WS02006111           JUNCTION     0.63     1.73     8.44     0  02:04        1.73
  WS02006112           JUNCTION     1.27     2.37     8.25     0  02:04        2.36
  WS02006113           JUNCTION     0.75     1.82     8.71     0  02:05        1.81
  WS02006115           JUNCTION     0.96     1.95     8.09     0  02:04        1.95
  WS02006116           JUNCTION     1.01     1.94     7.98     0  02:04        1.94
  WS02006228           JUNCTION     1.45     3.03     9.68     0  01:56        3.02
  WS02006229           JUNCTION     1.49     3.23     9.92     0  01:56        3.21
  WS02006230           JUNCTION     1.42     2.65     9.39     0  01:49        2.65
  WS02006231           JUNCTION     1.08     2.21     9.34     0  01:33        2.19
  WS02006232           JUNCTION     1.19     2.18     9.22     0  01:33        2.18
  WS02006234           JUNCTION     1.09     1.96     9.12     0  01:33        1.96
  WS02006235           JUNCTION     1.10     2.00     9.16     0  01:33        1.93
  WS02006238           JUNCTION     1.13     2.09     9.23     0  01:33        1.93
  WS02006239           JUNCTION     1.08     2.02     9.23     0  01:33        1.78
  WS02006240           JUNCTION     1.02     1.84     9.13     0  01:33        1.63
  WS02006242           JUNCTION     1.07     1.55     8.82     0  01:33        1.55
  WS02006243           JUNCTION     0.97     1.48     8.90     0  01:33        1.37
  WS02006245           JUNCTION     0.94     1.39     8.87     0  01:33        1.26
  WS02006247           JUNCTION     0.95     1.33     8.83     0  01:33        1.22
  WS02006248           JUNCTION     0.90     1.10     8.69     0  01:33        1.10
  WS02006249           JUNCTION     0.91     1.09     8.69     0  01:33        1.09
  WS02006251           JUNCTION     1.11     2.18     9.85     0  01:56        2.12
  WS02006252           JUNCTION     0.72     1.50     9.74     0  01:30        1.50
  WS02006253           JUNCTION     1.22     3.00    10.64     0  01:56        2.97
  WS02006256           JUNCTION     1.39     2.35     9.28     0  00:00        2.35
  WS02006280           JUNCTION     0.45     1.75    10.02     0  01:56        1.74
  WS02006284           JUNCTION     0.69     1.95    10.35     0  01:56        1.94
  WS02006287           JUNCTION     0.42     1.74    10.69     0  02:04        1.73
  WSF200               JUNCTION     0.32     0.52     5.75     0  02:05        0.52
  YS02001580           JUNCTION     0.16     1.05     9.59     0  01:51        0.78
  YS02001583           JUNCTION     0.19     1.02     9.52     0  01:51        0.82
  YS02001586           JUNCTION     0.31     1.13     9.30     0  01:51        1.13
  YS02001590           JUNCTION     0.44     1.40     9.26     0  01:51        1.37
  YS02001593           JUNCTION     0.37     1.34     9.20     0  01:51        1.29
  YS02001596           JUNCTION     0.51     1.68     9.10     0  01:51        1.66
  YS02001600           JUNCTION     0.63     1.87     9.00     0  01:51        1.87
  YS02001601           JUNCTION     0.84     2.06     8.90     0  01:51        2.06
  YS02001602           JUNCTION     0.74     1.87     8.77     0  01:54        1.87
  YS02001605           JUNCTION     0.70     1.77     8.68     0  01:59        1.77
  YS02001607           JUNCTION     0.67     1.65     8.49     0  02:21        1.64
  YS02001610           JUNCTION     0.72     1.68     8.48     0  01:54        1.68
  YS02001613           JUNCTION     0.67     1.66     8.50     0  02:04        1.65
  YS02001616           JUNCTION     0.60     1.59     8.51     0  02:01        1.59
  YS02001619           JUNCTION     0.58     1.59     8.52     0  02:04        1.59
  YS02001622           JUNCTION     0.58     1.56     8.47     0  02:04        1.56
  YS02001625           JUNCTION     0.85     1.78     8.38     0  01:54        1.78
  YS02001629           JUNCTION     0.80     1.85     8.40     0  01:56        1.85
  YS02001633           JUNCTION     0.88     2.00     8.46     0  01:56        1.98
  YS02001641           JUNCTION     0.87     1.95     8.39     0  01:56        1.94
  YS02001644           JUNCTION     0.86     1.92     8.35     0  01:56        1.92
  YS02001647           JUNCTION     0.66     1.76     8.37     0  02:01        1.75
  YS02001649           JUNCTION     0.81     2.00     8.39     0  02:01        1.97
  YS02001652           JUNCTION     0.64     1.86     8.46     0  02:01        1.80
  YS02001655           JUNCTION     0.48     1.66     8.51     0  01:56        1.58
  YS02001658           JUNCTION     0.33     1.53     8.67     0  01:56        1.32
  YS02001661           JUNCTION     0.27     1.26     8.67     0  02:01        1.09
  YS02001664           JUNCTION     0.09     0.53     8.46     0  02:01        0.50
  YS02001745           JUNCTION     0.17     0.82     8.34     0  02:05        0.82
  YS02001748           JUNCTION     0.34     1.51     8.58     0  01:57        1.25
  YS02001751           JUNCTION     0.44     1.53     8.41     0  01:57        1.45
  YS02001754           JUNCTION     0.61     1.71     8.32     0  02:04        1.70
  YS02001757           JUNCTION     0.90     2.05     8.31     0  02:04        2.04
  YS02001759           JUNCTION     0.81     2.02     8.38     0  02:04        2.01
  YS02001762           JUNCTION     0.78     1.99     8.39     0  02:04        1.98
  YS02001765           JUNCTION     0.74     1.95     8.40     0  02:04        1.94
  YS02001767           JUNCTION     0.72     1.92     8.41     0  02:04        1.91
  YS02001770           JUNCTION     0.72     1.93     8.42     0  02:04        1.92
  YS02001774           JUNCTION     0.79     1.98     8.40     0  02:04        1.98
  YS02001779           JUNCTION     0.57     1.68     8.37     0  01:54        1.68
  YS02001783           JUNCTION     0.34     1.73     7.87     0  01:59        1.51
  YS02001784           JUNCTION     0.34     1.70     7.77     0  01:59        1.46
  YS02001786           JUNCTION     0.29     1.54     7.57     0  01:59        1.30
  YS02001788           JUNCTION     0.21     1.46     7.44     0  01:59        1.16
  YS02001790           JUNCTION     0.25     1.52     7.17     0  01:59        1.31
  YS02001791           JUNCTION     0.16     1.55     7.02     0  01:59        1.27
  YS02001793           JUNCTION     0.10     1.80     6.63     0  02:00        1.80
  YS02001882           JUNCTION     0.41     1.64     8.36     0  01:56        1.63
  YS02001884           JUNCTION     0.51     1.74     8.35     0  01:56        1.73
  YS02001887           JUNCTION     0.58     1.82     8.36     0  02:00        1.81
  YS02001890           JUNCTION     0.61     1.81     8.32     0  01:56        1.81
  YS02001895           JUNCTION     0.38     1.57     8.31     0  01:56        1.56
  YS02001898           JUNCTION     0.39     1.57     8.31     0  01:56        1.56
  YS02001901           JUNCTION     0.51     1.68     8.29     0  01:56        1.67
  YS02001904           JUNCTION     0.48     1.64     8.27     0  02:00        1.63
  YS02001907           JUNCTION     0.81     1.96     8.25     0  01:56        1.96
  YS02001910           JUNCTION     0.61     1.98     8.49     0  01:57        1.86
  YS02001915           JUNCTION     0.42     1.93     8.65     0  01:57        1.74
  YS02001918           JUNCTION     0.24     1.81     8.88     0  01:57        1.40
  YS02001920           JUNCTION     0.32     2.10     9.10     0  01:57        1.47
  YS02001923           JUNCTION     0.18     2.01     9.27     0  01:57        1.23
  YS02001926           JUNCTION     0.21     1.90     9.35     0  01:57        1.06
  YS02001929           JUNCTION     0.12     1.78     9.47     0  01:57        0.82
  YS02006553           JUNCTION     0.81     2.04     8.32     0  01:59        1.97
  YS02006556           JUNCTION     0.78     2.10     8.41     0  01:59        1.96
  YS02006558           JUNCTION     0.82     2.17     8.44     0  01:59        2.01
  YS02006561           JUNCTION     0.21     1.30     7.96     0  01:59        1.12
  YS02163301           JUNCTION     0.83     1.91     8.43     0  01:56        1.90
  YS02163601           JUNCTION     0.92     2.03     8.43     0  01:56        2.00
  YS02164001           JUNCTION     0.85     1.95     8.41     0  01:56        1.92
  YSB1154              JUNCTION     0.57     1.91    10.97     0  02:04        1.90
  YSB1171              JUNCTION     0.71     1.95    10.85     0  01:56        1.95
  YSB1174              JUNCTION     0.52     1.79    10.90     0  02:00        1.79
  YSB6556              JUNCTION     0.46     1.74    10.91     0  02:04        1.74
  CC-1                 OUTFALL      0.00     0.00     0.00     0  00:00        0.00
  CC-2                 OUTFALL      0.00     0.00     0.00     0  00:00        0.00
  JK-1                 OUTFALL      0.00     0.00     0.00     0  00:00        0.00
  JK-2                 OUTFALL      0.00     0.00     0.00     0  00:00        0.00
  WSC                  OUTFALL      0.36     0.52     1.19     0  02:08        0.52
  CC-storage           STORAGE      1.50     2.21     7.71     0  03:00        2.21
  JK-storage           STORAGE      0.29     5.80     6.60     0  01:59        5.80
  XR-storage           STORAGE      7.86     8.66     6.66     0  06:00        8.66
  
  
  *******************
  Node Inflow Summary
  *******************
  
  -------------------------------------------------------------------------------------------------
                                  Maximum  Maximum                  Lateral       Total        Flow
                                  Lateral    Total  Time of Max      Inflow      Inflow     Balance
                                   Inflow   Inflow   Occurrence      Volume      Volume       Error
  Node                 Type           LPS      LPS  days hr:min    10^6 ltr    10^6 ltr     Percent
  -------------------------------------------------------------------------------------------------
  HS02004478           JUNCTION      0.00  2303.59     0  02:04           0        9.84      -0.004
  HS02004479           JUNCTION      0.00   427.75     0  01:56           0       0.963       0.108
  HS02004480           JUNCTION      0.00  2067.62     0  01:55           0        7.43       0.035
  HS02004770           JUNCTION   1502.98  1502.98     0  02:05        3.04         3.3       0.107
  HS02004777           JUNCTION      0.03   723.65     0  01:52    0.000648        2.18       0.248
  HS02004785           JUNCTION      0.15   743.44     0  01:52     0.00324        2.18       0.025
  HS02004788           JUNCTION    548.38   836.15     0  01:53        1.15        3.33       0.014
  HS02004792           JUNCTION   1843.70  2645.50     0  02:05        3.94        7.26       0.010
  HS02004799           JUNCTION    339.03  1712.10     0  01:54       0.652        6.65       0.047
  HS02004802           JUNCTION      0.00  1232.59     0  02:06           0        2.53       0.164
  HS02004807           JUNCTION    419.79  1382.67     0  02:05       0.798         2.6       0.174
  HS02004817           JUNCTION      0.60   965.41     0  02:05       0.013        1.87       0.917
  HS02004824           JUNCTION    593.10   964.17     0  02:05        1.41         2.1       0.033
  HS02004830           JUNCTION      0.15   579.47     0  01:53     0.00324       0.932       0.114
  HS02004837           JUNCTION    393.48   797.14     0  01:56       0.894        1.36       0.069
  HS02004842           JUNCTION      0.00   797.01     0  01:56           0       0.901       1.478
  HS02004848           JUNCTION    540.93  1069.46     0  01:56        1.39        2.12       0.000
  HS02004852           JUNCTION      0.00  1029.80     0  01:56           0        1.97       0.027
  HS02004856           JUNCTION    171.87  1079.61     0  01:56        0.33         2.3       0.046
  HS02004862           JUNCTION    248.42  1201.82     0  01:56       0.587        2.88       0.013
  HS02004870           JUNCTION    229.24  1224.81     0  01:55       0.438        3.32       0.020
  HS02004876           JUNCTION    229.47  1443.12     0  02:05       0.453        3.77       0.031
  HS02004881           JUNCTION    122.98  1565.80     0  02:05       0.231           4       0.020
  HS02004901           JUNCTION    355.44   620.49     0  02:05       0.677        1.09       0.191
  WS02001211           JUNCTION      7.35   205.67     0  01:45       0.159        4.02       0.860
  WS02001212           JUNCTION      0.00   211.91     0  03:16           0        3.98       0.427
  WS02001213           JUNCTION      0.00   215.33     0  03:16           0        3.97       0.579
  WS02003059           JUNCTION      0.00   220.43     0  03:15           0        3.95       1.021
  WS02003060           JUNCTION     16.53  1508.41     0  02:06       0.357        15.6       0.193
  WS02003066           JUNCTION      0.00  1302.09     0  02:05           0        11.3       0.048
  WS02003067           JUNCTION      0.00  1301.89     0  02:05           0        11.3       0.094
  WS02003069           JUNCTION      0.32  1508.33     0  02:06     0.00691        15.5       0.205
  WS02003072           JUNCTION      0.00  1507.88     0  02:06           0        15.5       0.247
  WS02003073           JUNCTION      1.82  1509.53     0  02:07      0.0393        15.5       0.281
  WS02004138           JUNCTION      0.00   190.00     0  00:29           0        3.88       0.080
  WS02004139           JUNCTION      0.32   192.76     0  00:29     0.00693        3.89       0.715
  WS02004401           JUNCTION      0.00  1302.94     0  02:04           0        11.6       0.211
  WS02004402           JUNCTION      0.00  1302.80     0  02:04           0        11.6       0.196
  WS02004403           JUNCTION      0.00  1303.06     0  02:05           0        11.5       0.177
  WS02004404           JUNCTION      0.16  1303.41     0  02:04      0.0035        11.5       0.129
  WS02004405           JUNCTION      0.04  1303.48     0  02:05    0.000823        11.5       0.196
  WS02004406           JUNCTION      0.00  1303.23     0  02:05           0        11.5       0.313
  WS02004407           JUNCTION      0.00  1303.11     0  02:05           0        11.5       0.080
  WS02004409           JUNCTION      0.00  1301.89     0  02:05           0        11.4       0.180
  WS02004410           JUNCTION      0.00  1302.14     0  02:05           0        11.4       0.198
  WS02004411           JUNCTION      0.00  1301.95     0  02:05           0        11.4       0.199
  WS02004412           JUNCTION      0.00  1302.38     0  02:05           0        11.4       0.209
  WS02004413           JUNCTION      0.00  1301.96     0  02:05           0        11.4       0.307
  WS02006109           JUNCTION      1.23  1288.84     0  02:04      0.0266        11.5       0.191
  WS02006110           JUNCTION      0.00  1124.00     0  02:25           0        11.2       0.200
  WS02006111           JUNCTION      0.00  1124.11     0  02:25           0        11.1       0.037
  WS02006112           JUNCTION    289.86  1302.63     0  02:04       0.556        11.7       0.259
  WS02006113           JUNCTION      0.00  1123.96     0  02:25           0        11.1       0.117
  WS02006115           JUNCTION      0.00  1302.60     0  02:05           0        11.6       0.215
  WS02006116           JUNCTION      0.00  1302.62     0  02:04           0        11.6       0.160
  WS02006228           JUNCTION      0.00  1288.14     0  02:04           0        11.5       0.148
  WS02006229           JUNCTION      0.00  2305.07     0  02:03           0        14.3       0.104
  WS02006230           JUNCTION     10.28  1025.72     0  02:03       0.222         7.4       0.223
  WS02006231           JUNCTION      0.00   453.32     0  01:55           0        6.06       0.186
  WS02006232           JUNCTION      0.00   453.45     0  01:55           0        6.06       0.299
  WS02006234           JUNCTION      0.00   453.15     0  01:55           0        6.05       0.173
  WS02006235           JUNCTION      0.00   419.43     0  03:44           0        5.99       0.181
  WS02006238           JUNCTION      0.00   419.31     0  03:44           0        5.86       0.145
  WS02006239           JUNCTION      0.00   419.27     0  03:44           0        5.86       0.238
  WS02006240           JUNCTION      0.00   419.20     0  03:44           0        5.87       0.280
  WS02006242           JUNCTION      0.00   419.17     0  03:44           0        5.88       0.332
  WS02006243           JUNCTION      0.00   455.84     0  01:33           0        5.44       0.259
  WS02006245           JUNCTION      0.00   491.34     0  01:33           0        5.45       0.238
  WS02006247           JUNCTION      0.00   491.34     0  01:33           0        5.46       0.175
  WS02006248           JUNCTION      0.00   527.52     0  01:32           0        5.78       0.157
  WS02006249           JUNCTION      0.00  1355.39     0  02:05           0        9.59       0.166
  WS02006251           JUNCTION      0.08  1596.73     0  02:05     0.00166        9.71       0.183
  WS02006252           JUNCTION      0.00   642.39     0  02:05           0        6.21      -0.006
  WS02006253           JUNCTION     30.64  1596.43     0  02:05      0.0558        4.06       0.299
  WS02006256           JUNCTION      0.00   300.00     0  00:00           0       0.775      -0.228
  WS02006280           JUNCTION      0.00  2303.33     0  02:03           0        9.82      -0.000
  WS02006284           JUNCTION      0.10  2303.01     0  02:04     0.00207        9.82       0.011
  WS02006287           JUNCTION      0.00  2303.47     0  02:03           0        9.82       0.012
  WSF200               JUNCTION      0.00  1302.22     0  02:05           0        11.3       0.050
  YS02001580           JUNCTION      0.00    69.75     0  01:51           0      0.0041       2.538
  YS02001583           JUNCTION      0.00   136.00     0  01:51           0      0.0151      -4.953
  YS02001586           JUNCTION    683.37   683.51     0  02:05        1.86        1.87       0.067
  YS02001590           JUNCTION      0.00   317.98     0  02:21           0        1.49       0.022
  YS02001593           JUNCTION      0.00   318.07     0  01:58           0        1.49      -0.009
  YS02001596           JUNCTION      0.00   318.00     0  02:16           0        1.49      -0.013
  YS02001600           JUNCTION      0.00   318.07     0  02:00           0        1.49      -0.015
  YS02001601           JUNCTION   1192.93  1510.47     0  02:05        2.55        4.05       0.035
  YS02001602           JUNCTION      0.00   504.33     0  01:51           0        2.51       0.029
  YS02001605           JUNCTION      0.00   503.90     0  01:51           0        2.33       0.045
  YS02001607           JUNCTION      0.00   503.79     0  01:51           0        2.33       0.104
  YS02001610           JUNCTION      0.00   638.81     0  02:05           0        2.51       0.116
  YS02001613           JUNCTION      0.00   503.07     0  01:50           0        1.96       0.110
  YS02001616           JUNCTION      0.00   500.36     0  01:51           0        1.96       0.036
  YS02001619           JUNCTION   1212.45  1212.45     0  02:05        2.98        4.75       0.001
  YS02001622           JUNCTION      0.00   911.32     0  02:05           0        4.57       0.008
  YS02001625           JUNCTION      0.00  1287.61     0  02:05           0        4.84       0.355
  YS02001629           JUNCTION      0.00   900.90     0  01:51           0        3.26      -0.092
  YS02001633           JUNCTION    895.91  1264.83     0  01:53        1.87        4.86       0.080
  YS02001641           JUNCTION      0.00  1263.33     0  01:53           0        4.59       0.064
  YS02001644           JUNCTION    795.80  1594.28     0  01:53        1.62         6.2       0.063
  YS02001647           JUNCTION      0.00  1595.43     0  01:53           0        5.62       0.000
  YS02001649           JUNCTION      0.00  1783.54     0  01:53           0        7.11       0.003
  YS02001652           JUNCTION      0.00   771.23     0  02:05           0        1.49      -0.083
  YS02001655           JUNCTION      0.15   770.59     0  02:05     0.00332        1.49       0.073
  YS02001658           JUNCTION      0.00   771.17     0  02:05           0        1.48      -0.058
  YS02001661           JUNCTION      0.00   840.88     0  02:01           0        1.48      -0.131
  YS02001664           JUNCTION    764.50   764.50     0  02:05        1.48        1.48       0.014
  YS02001745           JUNCTION    475.11   475.11     0  02:05       0.895       0.895       0.140
  YS02001748           JUNCTION      0.04   511.48     0  01:57    0.000972       0.895      -0.266
  YS02001751           JUNCTION      0.01   482.07     0  02:05    0.000238       0.904       0.124
  YS02001754           JUNCTION      0.26   481.06     0  02:05     0.00562       0.918      -0.155
  YS02001757           JUNCTION      0.00  2874.72     0  01:58           0        10.9       0.088
  YS02001759           JUNCTION    660.23  1152.60     0  02:00        1.24        2.91      -0.002
  YS02001762           JUNCTION      0.00   658.59     0  01:59           0        1.68      -0.009
  YS02001765           JUNCTION      0.00   658.11     0  01:59           0        1.68       0.001
  YS02001767           JUNCTION      0.54   658.83     0  01:59      0.0116        1.68      -0.006
  YS02001770           JUNCTION    954.03   954.03     0  02:05        1.88        1.93      -0.035
  YS02001774           JUNCTION      0.00   506.69     0  02:05           0       0.281       0.288
  YS02001779           JUNCTION      0.01   507.60     0  02:05    0.000108       0.237      -0.215
  YS02001783           JUNCTION      0.00  1159.97     0  02:03           0        4.57       0.008
  YS02001784           JUNCTION      1.06  1161.01     0  02:03      0.0229         4.6       0.015
  YS02001786           JUNCTION      0.06  1161.03     0  02:03     0.00122         4.6       0.016
  YS02001788           JUNCTION      0.07  1161.32     0  02:03     0.00153         4.6       0.000
  YS02001790           JUNCTION      0.15  1213.59     0  02:01     0.00335         4.6       0.003
  YS02001791           JUNCTION      0.00  1360.71     0  02:01           0         4.6      -0.012
  YS02001793           JUNCTION      0.00  1414.02     0  02:01           0         4.6       0.003
  YS02001882           JUNCTION      0.00    34.65     0  01:54           0       0.013       5.730
  YS02001884           JUNCTION      0.00    49.60     0  01:53           0      0.0487       5.841
  YS02001887           JUNCTION    692.34   692.34     0  02:05        1.29        1.32       0.360
  YS02001890           JUNCTION      0.00   692.70     0  02:05           0        1.28       0.421
  YS02001895           JUNCTION      0.00   518.00     0  02:06           0        1.23       0.163
  YS02001898           JUNCTION      0.00   518.39     0  02:06           0        1.22       0.022
  YS02001901           JUNCTION      0.00   518.21     0  02:06           0        1.23       0.290
  YS02001904           JUNCTION      0.00   517.99     0  02:04           0        1.23       0.250
  YS02001907           JUNCTION      0.00  1806.80     0  02:05           0        4.02       0.469
  YS02001910           JUNCTION      0.00  1289.44     0  02:05           0        2.79       0.267
  YS02001915           JUNCTION    862.87  1289.35     0  02:05        1.79        2.83       0.065
  YS02001918           JUNCTION      0.00   447.23     0  01:57           0        1.05       0.023
  YS02001920           JUNCTION      2.87   445.84     0  01:57       0.062        1.04       0.097
  YS02001923           JUNCTION      0.04   429.53     0  02:05    0.000814       0.967       0.002
  YS02001926           JUNCTION      0.05   428.51     0  02:05     0.00113        0.95      -0.002
  YS02001929           JUNCTION    425.55   425.55     0  02:05       0.942       0.943      -0.057
  YS02006553           JUNCTION      0.00   793.04     0  02:22           0        2.74       0.438
  YS02006556           JUNCTION      0.00   792.95     0  02:22           0        2.75       0.316
  YS02006558           JUNCTION    970.64  1161.01     0  02:03        1.88        4.61       0.081
  YS02006561           JUNCTION      0.00  1159.99     0  02:03           0        4.57      -0.003
  YS02163301           JUNCTION      0.00   896.64     0  01:53           0        3.26       0.050
  YS02163601           JUNCTION      0.11  1264.22     0  01:53     0.00238        4.59       0.115
  YS02164001           JUNCTION      0.00  1264.00     0  01:53           0        4.58       0.054
  YSB1154              JUNCTION    393.84   393.84     0  02:05       0.779        0.78       0.197
  YSB1171              JUNCTION      0.00   952.22     0  02:05           0        1.47       0.474
  YSB1174              JUNCTION    324.92   324.92     0  02:05       0.595       0.595       0.224
  YSB6556              JUNCTION      0.00   393.90     0  02:05           0        0.78       0.171
  CC-1                 OUTFALL       0.00   683.00     0  02:00           0        2.87       0.000
  CC-2                 OUTFALL       0.00   683.00     0  02:20           0        1.64       0.000
  JK-1                 OUTFALL       0.00  1000.00     0  00:00           0        3.37       0.000
  JK-2                 OUTFALL       0.00  1000.00     0  01:40           0        1.96       0.000
  WSC                  OUTFALL       0.00  1509.33     0  02:08           0        15.5       0.000
  CC-storage           STORAGE       0.00  2875.92     0  01:58           0        13.2      -0.005
  JK-storage           STORAGE       0.00  1707.14     0  02:01           0        4.75     -22.629
  XR-storage           STORAGE     200.00   200.00     0  00:00        4.32        4.92       0.001
  
  
  **********************
  Node Surcharge Summary
  **********************
  
  Surcharging occurs when water rises above the top of the highest conduit.
  ---------------------------------------------------------------------
                                               Max. Height   Min. Depth
                                   Hours       Above Crown    Below Rim
  Node                 Type      Surcharged         Meters       Meters
  ---------------------------------------------------------------------
  HS02004478           JUNCTION        0.60          0.667        0.273
  HS02004479           JUNCTION        0.74          0.899        0.151
  HS02004480           JUNCTION        0.79          0.968        0.132
  HS02004770           JUNCTION        0.68          0.720        0.000
  HS02004777           JUNCTION        0.69          0.780        0.000
  HS02004785           JUNCTION        0.63          0.790        0.000
  HS02004788           JUNCTION        0.62          0.720        0.000
  HS02004792           JUNCTION        0.75          0.900        0.000
  HS02004799           JUNCTION        0.91          1.060        0.000
  HS02004802           JUNCTION        0.81          1.094        0.116
  HS02004807           JUNCTION        0.79          1.220        0.000
  HS02004817           JUNCTION        1.48          1.691        0.049
  HS02004824           JUNCTION        0.62          1.281        0.029
  HS02004830           JUNCTION        0.59          1.298        0.032
  HS02004837           JUNCTION        0.54          1.240        0.100
  HS02004842           JUNCTION        0.70          1.520        0.000
  HS02004848           JUNCTION        0.49          1.359        0.011
  HS02004852           JUNCTION        0.52          1.420        0.000
  HS02004856           JUNCTION        0.51          1.300        0.000
  HS02004862           JUNCTION        0.55          1.300        0.000
  HS02004870           JUNCTION        0.57          1.258        0.142
  HS02004876           JUNCTION        0.62          1.322        0.238
  HS02004881           JUNCTION        0.59          1.062        0.388
  HS02004901           JUNCTION        0.69          0.720        0.000
  WS02004401           JUNCTION        1.72          0.855        0.805
  WS02004402           JUNCTION        1.75          0.799        0.941
  WS02004403           JUNCTION        1.76          0.723        1.307
  WS02004404           JUNCTION        1.92          0.734        2.046
  WS02004405           JUNCTION        1.88          0.685        2.115
  WS02004406           JUNCTION        1.85          0.570        1.880
  WS02004409           JUNCTION        1.22          0.387        1.973
  WS02004410           JUNCTION        1.17          0.300        2.240
  WS02004411           JUNCTION        1.08          0.204        2.326
  WS02004412           JUNCTION        0.95          0.105        2.205
  WS02004413           JUNCTION        1.54          0.144        2.056
  WS02006109           JUNCTION        4.51          1.820        0.000
  WS02006110           JUNCTION        2.24          1.478        0.372
  WS02006111           JUNCTION        1.51          0.924        0.946
  WS02006112           JUNCTION        2.41          1.369        0.311
  WS02006113           JUNCTION        1.52          1.018        0.912
  WS02006115           JUNCTION        1.63          0.940        1.310
  WS02006116           JUNCTION        1.64          0.883        1.407
  WS02006228           JUNCTION        4.51          2.200        0.000
  WS02006229           JUNCTION        1.13          1.050        0.020
  WS02006230           JUNCTION        1.99          1.570        0.000
  WS02006231           JUNCTION        2.24          1.504        0.026
  WS02006232           JUNCTION        4.45          1.480        0.000
  WS02006234           JUNCTION        4.03          1.240        0.000
  WS02006235           JUNCTION        4.45          1.290        0.000
  WS02006238           JUNCTION        4.45          1.369        0.061
  WS02006239           JUNCTION        4.45          1.282        0.008
  WS02006240           JUNCTION        4.45          1.128        0.262
  WS02006242           JUNCTION        4.45          0.820        0.000
  WS02006243           JUNCTION        4.45          0.770        0.000
  WS02006245           JUNCTION        4.45          0.677        0.173
  WS02006247           JUNCTION        4.45          0.618        0.142
  WS02006248           JUNCTION        4.44          0.380        0.000
  WS02006249           JUNCTION        4.45          0.390        0.000
  WS02006251           JUNCTION        2.40          1.147        0.033
  WS02006252           JUNCTION        4.49          1.100        0.000
  WS02006253           JUNCTION        2.46          1.959        0.521
  WS02006256           JUNCTION        4.91          2.050        0.000
  WS02006280           JUNCTION        0.93          0.702        0.078
  WS02006284           JUNCTION        0.83          0.672        0.128
  WS02006287           JUNCTION        0.71          0.737        0.153
  YS02001580           JUNCTION        0.74          0.450        0.000
  YS02001583           JUNCTION        0.75          0.380        0.120
  YS02001586           JUNCTION        0.99          0.510        0.000
  YS02001590           JUNCTION        1.11          0.750        0.000
  YS02001593           JUNCTION        1.11          0.719        0.121
  YS02001596           JUNCTION        1.30          0.955        0.115
  YS02001600           JUNCTION        1.50          1.190        0.000
  YS02001601           JUNCTION        1.84          1.440        0.000
  YS02001602           JUNCTION        1.76          1.270        0.000
  YS02001605           JUNCTION        1.73          1.175        0.005
  YS02001607           JUNCTION        1.26          0.646        0.034
  YS02001610           JUNCTION        1.30          0.680        0.000
  YS02001613           JUNCTION        1.26          0.659        0.041
  YS02001616           JUNCTION        1.22          0.595        0.015
  YS02001619           JUNCTION        1.21          0.587        0.023
  YS02001622           JUNCTION        1.21          0.562        0.058
  YS02001625           JUNCTION        1.46          0.780        0.000
  YS02001629           JUNCTION        1.18          0.470        0.000
  YS02001633           JUNCTION        1.53          0.981        0.079
  YS02001641           JUNCTION        1.51          0.948        0.152
  YS02001644           JUNCTION        1.50          0.920        0.000
  YS02001647           JUNCTION        1.33          0.759        0.141
  YS02001649           JUNCTION        1.47          0.997        0.053
  YS02001652           JUNCTION        1.29          0.829        0.301
  YS02001655           JUNCTION        0.91          0.659        0.541
  YS02001658           JUNCTION        0.51          0.526        0.774
  YS02001661           JUNCTION        0.01          0.195        1.195
  YS02001748           JUNCTION        0.40          0.426        0.764
  YS02001751           JUNCTION        0.83          0.530        0.670
  YS02001754           JUNCTION        1.26          0.665        0.485
  YS02001757           JUNCTION        1.94          1.050        0.160
  YS02001759           JUNCTION        1.57          1.017        0.193
  YS02001762           JUNCTION        1.45          0.995        0.155
  YS02001765           JUNCTION        1.41          0.954        0.146
  YS02001767           JUNCTION        1.38          0.925        0.105
  YS02001770           JUNCTION        1.36          0.900        0.020
  YS02001774           JUNCTION        1.43          0.983        0.067
  YS02001779           JUNCTION        1.23          0.680        0.000
  YS02001783           JUNCTION        0.65          0.927        0.673
  YS02001784           JUNCTION        0.61          0.902        0.588
  YS02001786           JUNCTION        0.49          0.739        0.691
  YS02001788           JUNCTION        0.03          0.661        0.819
  YS02001790           JUNCTION        0.03          0.724        0.433
  YS02001791           JUNCTION        0.03          0.746        1.174
  YS02001793           JUNCTION        0.04          0.803        1.797
  YS02001882           JUNCTION        0.58          0.643        0.187
  YS02001884           JUNCTION        0.59          0.677        0.193
  YS02001887           JUNCTION        0.63          0.768        0.182
  YS02001890           JUNCTION        0.65          0.760        0.000
  YS02001895           JUNCTION        0.56          0.567        0.183
  YS02001898           JUNCTION        0.56          0.540        0.200
  YS02001901           JUNCTION        0.62          0.678        0.192
  YS02001904           JUNCTION        0.60          0.641        0.209
  YS02001907           JUNCTION        0.91          0.950        0.000
  YS02001910           JUNCTION        0.68          0.979        0.121
  YS02001915           JUNCTION        0.57          0.929        0.071
  YS02001918           JUNCTION        0.47          0.810        0.000
  YS02001920           JUNCTION        0.49          1.096        0.044
  YS02001923           JUNCTION        0.05          0.797        0.023
  YS02001926           JUNCTION        0.09          0.900        0.000
  YS02001929           JUNCTION        0.01          0.780        0.000
  YS02006553           JUNCTION        0.94          1.037        0.153
  YS02006556           JUNCTION        0.80          1.058        0.292
  YS02006558           JUNCTION        0.78          1.073        0.327
  YS02006561           JUNCTION        0.44          0.501        0.649
  YS02163301           JUNCTION        1.50          0.911        0.119
  YS02163601           JUNCTION        1.59          1.030        0.050
  YS02164001           JUNCTION        1.51          0.951        0.149
  YSB1154              JUNCTION        1.08          1.212        0.188
  YSB1171              JUNCTION        1.08          1.100        0.000
  YSB1174              JUNCTION        0.95          1.094        0.156
  YSB6556              JUNCTION        0.87          1.040        0.060
  
  
  *********************
  Node Flooding Summary
  *********************
  
  Flooding refers to all water that overflows a node, whether it ponds or not.
  --------------------------------------------------------------------------
                                                             Total   Maximum
                                 Maximum   Time of Max       Flood    Ponded
                        Hours       Rate    Occurrence      Volume     Depth
  Node                 Flooded       LPS   days hr:min    10^6 ltr    Meters
  --------------------------------------------------------------------------
  HS02004770              0.45    982.82      0  02:05       0.707     0.000
  HS02004777              0.01     21.60      0  01:53       0.000     0.000
  HS02004785              0.01     96.03      0  01:53       0.000     0.000
  HS02004788              0.01    134.37      0  01:53       0.000     0.000
  HS02004792              0.44   1502.17      0  02:05       1.262     0.000
  HS02004799              0.23    179.57      0  02:03       0.076     0.000
  HS02004807              0.05    151.40      0  02:05       0.014     0.000
  HS02004842              0.01     99.00      0  01:56       0.001     0.000
  HS02004852              0.01     72.43      0  01:56       0.000     0.000
  HS02004856              0.01     29.03      0  01:56       0.000     0.000
  HS02004862              0.01     23.65      0  01:56       0.000     0.000
  HS02004901              0.54    620.30      0  02:05       0.823     0.000
  WS02006109              0.52    275.35      0  02:05       0.292     0.000
  WS02006228              0.01      1.51      0  01:56       0.000     0.000
  WS02006230              0.84    572.94      0  02:03       1.159     0.000
  WS02006232              0.18     26.53      0  01:33       0.000     0.000
  WS02006234              0.92    224.32      0  01:33       0.260     0.000
  WS02006235              0.01     53.65      0  01:33       0.000     0.000
  WS02006242              1.07    137.32      0  01:51       0.456     0.000
  WS02006243              0.01    101.93      0  01:33       0.000     0.000
  WS02006248              1.47    339.61      0  01:51       1.468     0.000
  WS02006249              2.16   1294.44      0  02:05       4.947     0.000
  WS02006252              0.53    641.91      0  02:05       0.550     0.000
  WS02006256              0.71    296.46      0  01:50       0.455     0.000
  YS02001580              0.01     47.93      0  01:51       0.000     0.000
  YS02001586              0.57    365.76      0  02:05       0.362     0.000
  YS02001590              0.01      8.64      0  01:51       0.000     0.000
  YS02001600              0.01      2.90      0  01:51       0.000     0.000
  YS02001601              0.90   1111.79      0  02:05       1.538     0.000
  YS02001602              0.86     62.02      0  02:21       0.179     0.000
  YS02001610              0.69    638.29      0  02:05       0.732     0.000
  YS02001625              0.77   1286.98      0  02:05       1.830     0.000
  YS02001629              0.05     37.20      0  01:57       0.003     0.000
  YS02001644              0.35    985.48      0  02:05       0.567     0.000
  YS02001779              0.27    507.52      0  02:05       0.219     0.000
  YS02001890              0.19    174.87      0  02:04       0.049     0.000
  YS02001907              0.41   1619.19      0  02:05       1.272     0.000
  YS02001918              0.01     90.54      0  01:57       0.001     0.000
  YS02001926              0.01     18.09      0  01:57       0.000     0.000
  YS02001929              0.01    261.91      0  01:57       0.001     0.000
  YSB1171                 0.32    951.53      0  02:05       0.603     0.000
  JK-storage              0.01    753.84      0  01:59       0.037     0.000
  
  
  **********************
  Storage Volume Summary
  **********************
  
  --------------------------------------------------------------------------------------------------
                         Average     Avg  Evap Exfil       Maximum     Max    Time of Max    Maximum
                          Volume    Pcnt  Pcnt  Pcnt        Volume    Pcnt     Occurrence    Outflow
  Storage Unit           1000 m3    Full  Loss  Loss       1000 m3    Full    days hr:min        LPS
  --------------------------------------------------------------------------------------------------
  CC-storage               4.182      65     0     0         6.168      96       0  03:00    1766.00
  JK-storage               0.015       5     0     0         0.291     100       0  01:59    2300.00
  XR-storage               0.943      66     0     0         1.039      72       0  06:00     190.00
  
  
  ***********************
  Outfall Loading Summary
  ***********************
  
  -----------------------------------------------------------
                         Flow       Avg       Max       Total
                         Freq      Flow      Flow      Volume
  Outfall Node           Pcnt       LPS       LPS    10^6 ltr
  -----------------------------------------------------------
  CC-1                  27.60    683.00    683.00       2.870
  CC-2                  17.33    683.00    683.00       1.640
  JK-1                  82.80    269.14   1000.00       3.372
  JK-2                  24.90    565.23   1000.00       1.958
  WSC                   99.96    863.33   1509.33      15.465
  -----------------------------------------------------------
  System                50.52   3063.71   1509.33      25.305
  
  
  ********************
  Link Flow Summary
  ********************
  
  -----------------------------------------------------------------------------
                                 Maximum  Time of Max   Maximum    Max/    Max/
                                  |Flow|   Occurrence   |Veloc|    Full    Full
  Link                 Type          LPS  days hr:min     m/sec    Flow   Depth
  -----------------------------------------------------------------------------
  1                    CONDUIT   1509.33     0  02:08      3.70    0.53    0.52
  HS02004478WS02006287 CONDUIT   2303.47     0  02:03      2.60    0.64    1.00
  HS02004479HS02004480 CONDUIT    428.08     0  01:56      0.61    0.41    1.00
  HS02004480HS02004478 CONDUIT   2064.89     0  01:56      2.95    8.70    1.00
  HS02004770HS02004777 CONDUIT    723.62     0  01:52      1.03    1.32    1.00
  HS02004777HS02004785 CONDUIT    743.29     0  01:52      1.12    0.91    1.00
  HS02004785HS02004788 CONDUIT    614.62     0  02:25      1.34    4.63    1.00
  HS02004788HS02004792 CONDUIT    835.37     0  01:53      1.44    0.55    1.00
  HS02004792HS02004799 CONDUIT   1563.32     0  01:54      2.23    0.96    1.00
  HS02004799HS02004480 CONDUIT   1712.14     0  01:54      2.45    2.16    1.00
  HS02004802HS02004478 CONDUIT   1233.95     0  02:05      1.76    1.09    1.00
  HS02004807HS02004802 CONDUIT   1232.59     0  02:06      1.76    2.35    1.00
  HS02004817HS02004807 CONDUIT    966.09     0  02:05      1.38    0.57    1.00
  HS02004817HS02004824 CONDUIT    964.81     0  02:05      1.38    0.43    1.00
  HS02004824HS02004830 CONDUIT    579.32     0  01:53      0.85    0.76    1.00
  HS02004830HS02004837 CONDUIT    594.85     0  01:53      0.94    0.59    1.00
  HS02004837HS02004842 CONDUIT    797.01     0  01:56      1.14    0.48    1.00
  HS02004842HS02004848 CONDUIT    796.43     0  01:56      1.17    0.46    1.00
  HS02004848HS02004852 CONDUIT   1029.80     0  01:56      1.54    1.16    1.00
  HS02004852HS02004856 CONDUIT    984.34     0  01:56      1.44    1.13    1.00
  HS02004856HS02004862 CONDUIT   1075.64     0  01:56      1.68    1.07    1.00
  HS02004862HS02004870 CONDUIT   1102.57     0  01:55      1.91    1.19    1.00
  HS02004870HS02004876 CONDUIT   1213.93     0  02:05      1.92    0.81    1.00
  HS02004876HS02004881 CONDUIT   1442.86     0  02:05      2.56   15.35    1.00
  HS02004881HS02006253 CONDUIT   1565.80     0  02:05      2.54    0.31    1.00
  HS02004901HS02004770 CONDUIT    265.79     0  02:20      0.38    1.00    1.00
  WS02001211WS02001212 CONDUIT    211.91     0  03:16      0.54    0.16    0.69
  WS02001212WS02001213 CONDUIT    215.33     0  03:16      1.03    0.33    0.56
  WS02001213WS02003059 CONDUIT    220.43     0  03:15      0.47    0.36    0.89
  WS02003059WS02003060 CONDUIT    226.62     0  03:15      0.67    0.15    0.81
  WS02003060WS02003069 CONDUIT   1508.01     0  02:06      2.09    0.59    0.61
  WS02003066WSF200     CONDUIT   1302.22     0  02:05      3.24    0.22    0.39
  WS02003067WS02003066 CONDUIT   1302.09     0  02:05      2.00    0.42    0.56
  WS02003069WS02003072 CONDUIT   1507.88     0  02:06      1.89    0.73    0.66
  WS02003072WS02003073 CONDUIT   1507.71     0  02:07      2.05    3.26    0.62
  WS02004138WS02004139 CONDUIT    192.44     0  00:29      2.15    0.04    0.42
  WS02004139WS02001211 CONDUIT    198.32     0  01:45      0.54    0.25    0.61
  WS02004401WS02004402 CONDUIT   1302.80     0  02:04      1.66    1.56    1.00
  WS02004402WS02004403 CONDUIT   1303.06     0  02:05      1.66    1.87    1.00
  WS02004403WS02004404 CONDUIT   1303.24     0  02:04      1.66    0.94    1.00
  WS02004404WS02004405 CONDUIT   1303.45     0  02:05      1.66   12.77    1.00
  WS02004405WS02004406 CONDUIT   1303.23     0  02:05      1.66    2.57    1.00
  WS02004406WS02004407 CONDUIT   1303.11     0  02:05      1.69    0.58    0.96
  WS02004407WS02004409 CONDUIT   1301.89     0  02:05      1.93    0.46    0.96
  WS02004409WS02004410 CONDUIT   1302.14     0  02:05      1.66    1.68    1.00
  WS02004410WS02004411 CONDUIT   1301.95     0  02:05      1.66    1.78    1.00
  WS02004411WS02004412 CONDUIT   1302.38     0  02:05      1.66    1.85    1.00
  WS02004412WS02004413 CONDUIT   1301.96     0  02:05      1.66    0.87    1.00
  WS02004413WS02003067 CONDUIT   1301.89     0  02:05      2.01    0.56    0.77
  WS02006109WS02006110 CONDUIT   1124.00     0  02:25      2.24    2.16    1.00
  WS02006110WS02006113 CONDUIT   1123.96     0  02:25      2.24    1.02    1.00
  WS02006111WS02006112 CONDUIT   1124.07     0  02:25      2.24    0.53    1.00
  WS02006112WS02006115 CONDUIT   1302.60     0  02:05      1.66    0.77    1.00
  WS02006113WS02006111 CONDUIT   1124.11     0  02:25      2.69    1.35    1.00
  WS02006115WS02006116 CONDUIT   1302.62     0  02:04      1.66    1.67    1.00
  WS02006116WS02004401 CONDUIT   1302.94     0  02:04      1.66    1.80    1.00
  WS02006228WS02006109 CONDUIT   1287.61     0  02:04      2.56    5.63    1.00
  WS02006229WS02006228 CONDUIT   1288.14     0  02:04      2.56    4.27    1.00
  WS02006230WS02006229 CONDUIT   1015.44     0  02:03      2.64   22.60    1.00
  WS02006231WS02006230 CONDUIT    453.32     0  01:55      1.24    6.88    1.00
  WS02006232WS02006231 CONDUIT    453.45     0  01:55      1.18    0.95    1.00
  WS02006234WS02006232 CONDUIT    453.15     0  01:55      1.39    0.92    1.00
  WS02006235WS02006234 CONDUIT    419.55     0  03:44      1.09    4.43    1.00
  WS02006238WS02006235 CONDUIT    419.42     0  03:44      1.46    0.94    1.00
  WS02006239WS02006238 CONDUIT    419.31     0  03:44      1.09    1.34    1.00
  WS02006240WS02006239 CONDUIT    419.27     0  03:44      1.09    1.32    1.00
  WS02006242WS02006240 CONDUIT    419.20     0  03:44      1.09    1.66    1.00
  WS02006243WS02006242 CONDUIT    419.17     0  03:44      1.14    0.90    1.00
  WS02006245WS02006243 CONDUIT    455.84     0  01:33      1.31    1.35    1.00
  WS02006247WS02006245 CONDUIT    491.34     0  01:33      1.36    3.90    1.00
  WS02006248WS02006247 CONDUIT    491.34     0  01:33      1.37    1.07    1.00
  WS02006249WS02006248 CONDUIT    527.52     0  01:32      1.47    2.89    1.00
  WS02006251WS02006249 CONDUIT   1355.39     0  02:05      3.52    3.91    1.00
  WS02006252WS02006251 CONDUIT    409.75     0  02:40      3.26    1.50    1.00
  WS02006253WS02006251 CONDUIT   1596.65     0  02:05      4.15    4.79    1.00
  WS02006256WS02006235 CONDUIT    288.92     0  00:00      4.23    3.06    1.00
  WS02006280WS02006229 CONDUIT   2305.07     0  02:03      4.18    0.49    1.00
  WS02006284WS02006280 CONDUIT   2303.33     0  02:03      2.98    0.96    1.00
  WS02006287WS02006284 CONDUIT   2302.92     0  02:04      2.93    1.07    1.00
  WSF200WS02003060     CONDUIT   1302.26     0  02:05      2.37    0.29    0.50
  YS02001580YS02001583 CONDUIT     69.75     0  01:51      0.53    0.27    1.00
  YS02001583YS02001586 CONDUIT    136.00     0  01:51      0.57    0.21    1.00
  YS02001586YS02001590 CONDUIT    317.98     0  02:21      1.25    0.56    1.00
  YS02001590YS02001593 CONDUIT    318.07     0  01:58      1.12    2.00    1.00
  YS02001593YS02001596 CONDUIT    318.00     0  02:16      1.60    0.50    1.00
  YS02001596YS02001600 CONDUIT    318.07     0  02:00      1.12    0.62    1.00
  YS02001600YS02001601 CONDUIT    317.91     0  01:58      1.12    0.55    1.00
  YS02001601YS02001602 CONDUIT    504.33     0  01:51      1.78    1.82    1.00
  YS02001602YS02001605 CONDUIT    503.90     0  01:51      1.78   10.66    1.00
  YS02001605YS02001607 CONDUIT    503.79     0  01:51      1.78    2.76    1.00
  YS02001607YS02001610 CONDUIT    502.42     0  01:50      0.64    0.48    1.00
  YS02001610YS02001613 CONDUIT    503.07     0  01:50      0.64    0.58    1.00
  YS02001613YS02001616 CONDUIT    500.36     0  01:51      0.64    0.43    1.00
  YS02001616YS02001619 CONDUIT    502.91     0  01:51      0.67    0.87    1.00
  YS02001619YS02001622 CONDUIT    911.32     0  02:05      1.17    1.34    1.00
  YS02001622YS02001625 CONDUIT    912.05     0  02:05      1.16    0.49    1.00
  YS02001625YS02001629 CONDUIT    900.90     0  01:51      1.15    0.43    1.00
  YS02001629YS02163301 CONDUIT    896.64     0  01:53      1.14    1.10    1.00
  YS02001633YS02163601 CONDUIT   1264.11     0  01:53      1.61    1.33    1.00
  YS02001641YS02001644 CONDUIT   1262.97     0  01:53      1.61    4.08    1.00
  YS02001644YS02001647 CONDUIT   1595.43     0  01:53      2.09    0.94    1.00
  YS02001647YS02001649 CONDUIT   1588.15     0  01:54      2.24    0.84    1.00
  YS02001649YS02001757 CONDUIT   1766.57     0  01:53      2.26    1.07    1.00
  YS02001652YS02001649 CONDUIT    771.55     0  02:05      0.98    0.38    1.00
  YS02001655YS02001652 CONDUIT    771.23     0  02:05      1.32    0.37    1.00
  YS02001658YS02001655 CONDUIT    770.44     0  02:05      1.82    0.33    1.00
  YS02001661YS02001658 CONDUIT    771.17     0  02:05      2.15    0.30    1.00
  YS02001664YS02001661 CONDUIT    840.88     0  02:01      2.06    0.26    0.75
  YS02001745YS02001748 CONDUIT    511.43     0  01:57      1.99    0.20    0.91
  YS02001748YS02001751 CONDUIT    482.06     0  02:05      1.61    0.24    1.00
  YS02001751YS02001754 CONDUIT    480.80     0  02:05      1.43    0.23    1.00
  YS02001754YS02001757 CONDUIT    480.78     0  02:05      0.61    0.19    1.00
  YS02001757CaochengTiaoxuchi CONDUIT   2875.92     0  01:58      3.66    1.24    1.00
  YS02001759YS02001757 CONDUIT   1152.06     0  02:00      1.47    0.82    1.00
  YS02001762YS02001759 CONDUIT    657.89     0  01:59      0.84    0.76    1.00
  YS02001765YS02001762 CONDUIT    658.59     0  01:59      0.84    0.62    1.00
  YS02001767YS02001765 CONDUIT    658.11     0  01:59      0.84    0.83    1.00
  YS02001770YS02001767 CONDUIT    658.30     0  01:59      0.84    2.61    1.00
  YS02001774YS02001770 CONDUIT    506.69     0  02:05      0.65    0.32    1.00
  YS02001779YS02001774 CONDUIT    507.60     0  02:05      0.65    0.26    1.00
  YS02001783YS02001784 CONDUIT   1159.95     0  02:03      2.31    1.60    1.00
  YS02001784YS02001785 CONDUIT   1160.97     0  02:03      2.31    2.70    1.00
  YS02001786YS02001788 CONDUIT   1161.25     0  02:03      2.47    2.24    1.00
  YS02001788YS02001790 CONDUIT   1213.43     0  02:01      2.72    0.89    1.00
  YS02001790YS02001791 CONDUIT   1360.71     0  02:01      3.43    1.48    1.00
  YS02001791YS02001793 CONDUIT   1414.02     0  02:01      6.78    0.61    1.00
  YS02001793JiankangQianchi CONDUIT   1707.14     0  02:01     24.21    0.14    1.00
  YS02001882YS02001884 CONDUIT     34.65     0  01:54      0.15    0.04    1.00
  YS02001884YS02001887 CONDUIT     49.60     0  01:53      0.11    0.07    1.00
  YS02001887YS02001890 CONDUIT    692.70     0  02:05      0.88    1.19    1.00
  YS02001890YS02001895 CONDUIT    518.00     0  02:06      0.66    0.24    1.00
  YS02001895YS02001898 CONDUIT    518.39     0  02:06      0.66    0.90    1.00
  YS02001898YS02001901 CONDUIT    518.21     0  02:06      0.66    0.33    1.00
  YS02001901YS02001904 CONDUIT    517.99     0  02:04      0.66    0.80    1.00
  YS02001904YS02001907 CONDUIT    518.12     0  02:06      0.66    0.18    1.00
  YS02001907YS02006553 CONDUIT    793.04     0  02:22      0.88    0.93    1.00
  YS02001910YS02001907 CONDUIT   1289.68     0  02:05      1.64    0.73    1.00
  YS02001915YS02001910 CONDUIT   1289.44     0  02:05      1.64    0.64    1.00
  YS02001918YS02001915 CONDUIT    449.18     0  01:57      0.57    0.25    1.00
  YS02001920YS02001918 CONDUIT    447.23     0  01:57      0.64    0.43    1.00
  YS02001923YS02001920 CONDUIT    442.97     0  01:57      0.70    0.20    1.00
  YS02001926YS02001923 CONDUIT    429.49     0  02:05      0.94    0.61    1.00
  YS02001929YS02001926 CONDUIT    428.46     0  02:05      1.07    0.20    1.00
  YS02006553YS02006556 CONDUIT    792.95     0  02:22      1.01    0.68    1.00
  YS02006556YS02006558 CONDUIT    793.59     0  02:22      1.01    0.63    1.00
  YS02006558YS02006561 CONDUIT   1159.99     0  02:03      4.10    2.56    1.00
  YS02006561YS02001783 CONDUIT   1159.97     0  02:03      2.31    0.60    1.00
  YS02163301YS02001633 CONDUIT    895.36     0  01:53      1.14    0.84    1.00
  YS02163601YS02164001 CONDUIT   1264.00     0  01:53      1.61    1.12    1.00
  YS02164001YS02001641 CONDUIT   1263.33     0  01:53      1.61    1.73    1.00
  YSB1154YSB6556       CONDUIT    393.90     0  02:05      1.02    0.71    1.00
  YSB1171HS02004479    CONDUIT    427.75     0  01:56      0.85    0.28    1.00
  YSB1174YSB1171       CONDUIT    324.83     0  02:05      0.84    0.50    1.00
  YSB6556YSB1171       CONDUIT    394.41     0  02:05      1.02    0.41    1.00
  CC-R1                PUMP       683.00     0  02:00              1.00
  CC-R2                PUMP       683.00     0  02:20              1.00
  CC-S1                PUMP       200.00     0  01:30              1.00
  CC-S2                PUMP       200.00     0  01:30              1.00
  JK-R1                PUMP      1000.00     0  00:00              1.00
  JK-R2                PUMP      1000.00     0  01:40              1.00
  JK-S                 PUMP       300.00     0  00:00              1.00
  XR-1                 PUMP        95.00     0  00:10              1.00
  XR-2                 PUMP        95.00     0  00:29              1.00
  XR-3                 PUMP         0.00     0  00:00              0.00
  XR-4                 PUMP         0.00     0  00:00              0.00
  
  
  ***************************
  Flow Classification Summary
  ***************************
  
  -------------------------------------------------------------------------------------
                      Adjusted    ---------- Fraction of Time in Flow Class ---------- 
                       /Actual         Up    Down  Sub   Sup   Up    Down  Norm  Inlet 
  Conduit               Length    Dry  Dry   Dry   Crit  Crit  Crit  Crit  Ltd   Ctrl  
  -------------------------------------------------------------------------------------
  1                       1.00   0.00  0.00  0.00  0.00  1.00  0.00  0.00  0.45  0.00
  HS02004478WS02006287    1.00   0.06  0.00  0.00  0.64  0.30  0.00  0.00  0.44  0.00
  HS02004479HS02004480    1.00   0.02  0.00  0.00  0.98  0.00  0.00  0.00  0.14  0.00
  HS02004480HS02004478    1.00   0.05  0.00  0.00  0.59  0.00  0.00  0.36  0.00  0.00
  HS02004770HS02004777    1.00   0.00  0.05  0.00  0.95  0.00  0.00  0.00  0.03  0.00
  HS02004777HS02004785    1.00   0.00  0.00  0.00  1.00  0.00  0.00  0.00  0.15  0.00
  HS02004785HS02004788    1.00   0.00  0.00  0.00  1.00  0.00  0.00  0.00  0.00  0.00
  HS02004788HS02004792    1.00   0.00  0.00  0.00  0.99  0.01  0.00  0.00  0.85  0.00
  HS02004792HS02004799    1.00   0.00  0.00  0.00  0.99  0.01  0.00  0.00  0.77  0.00
  HS02004799HS02004480    1.00   0.00  0.02  0.00  0.94  0.00  0.04  0.00  0.00  0.00
  HS02004802HS02004478    1.00   0.05  0.00  0.00  0.94  0.00  0.00  0.00  0.03  0.00
  HS02004807HS02004802    1.00   0.05  0.00  0.00  0.94  0.00  0.00  0.01  0.00  0.00
  HS02004817HS02004807    1.00   0.00  0.05  0.00  0.95  0.00  0.00  0.00  0.01  0.00
  HS02004817HS02004824    1.00   0.00  0.00  0.00  1.00  0.00  0.00  0.00  0.72  0.00
  HS02004824HS02004830    1.00   0.00  0.00  0.00  1.00  0.00  0.00  0.00  0.01  0.00
  HS02004830HS02004837    1.00   0.00  0.00  0.00  1.00  0.00  0.00  0.00  0.81  0.00
  HS02004837HS02004842    1.00   0.00  0.00  0.00  0.99  0.01  0.00  0.00  0.14  0.00
  HS02004842HS02004848    1.00   0.00  0.05  0.00  0.95  0.00  0.00  0.00  0.39  0.00
  HS02004848HS02004852    1.00   0.05  0.00  0.00  0.95  0.00  0.00  0.00  0.59  0.00
  HS02004852HS02004856    1.00   0.05  0.00  0.00  0.94  0.00  0.00  0.00  0.53  0.00
  HS02004856HS02004862    1.00   0.00  0.06  0.00  0.94  0.00  0.00  0.00  0.64  0.00
  HS02004862HS02004870    1.00   0.00  0.00  0.00  1.00  0.00  0.00  0.00  0.03  0.00
  HS02004870HS02004876    1.00   0.01  0.00  0.00  0.99  0.00  0.00  0.00  0.78  0.00
  HS02004876HS02004881    1.00   0.01  0.00  0.00  0.72  0.27  0.00  0.00  0.00  0.00
  HS02004881HS02006253    1.00   0.03  0.00  0.00  0.89  0.00  0.00  0.08  0.62  0.00
  HS02004901HS02004770    1.00   0.05  0.00  0.00  0.95  0.00  0.00  0.00  0.00  0.00
  WS02001211WS02001212    1.00   0.00  0.02  0.00  0.98  0.00  0.00  0.00  0.00  0.00
  WS02001212WS02001213    1.00   0.02  0.00  0.00  0.87  0.00  0.11  0.00  0.00  0.00
  WS02001213WS02003059    1.00   0.00  0.00  0.00  0.99  0.00  0.00  0.00  0.00  0.00
  WS02003059WS02003060    1.00   0.00  0.00  0.00  1.00  0.00  0.00  0.00  0.04  0.00
  WS02003060WS02003069    1.00   0.00  0.00  0.00  0.99  0.01  0.00  0.00  0.20  0.00
  WS02003066WSF200        1.00   0.12  0.00  0.00  0.00  0.88  0.00  0.00  0.32  0.00
  WS02003067WS02003066    1.00   0.11  0.00  0.00  0.88  0.00  0.00  0.00  0.00  0.00
  WS02003069WS02003072    1.00   0.00  0.00  0.00  1.00  0.00  0.00  0.00  0.24  0.00
  WS02003072WS02003073    1.00   0.00  0.00  0.00  0.00  0.00  0.00  1.00  0.00  0.00
  WS02004138WS02004139    1.00   0.01  0.00  0.00  0.98  0.00  0.00  0.00  0.97  0.00
  WS02004139WS02001211    1.00   0.00  0.01  0.00  0.99  0.00  0.00  0.00  0.01  0.00
  WS02004401WS02004402    1.00   0.02  0.00  0.00  0.98  0.00  0.00  0.00  0.04  0.00
  WS02004402WS02004403    1.00   0.02  0.00  0.00  0.98  0.00  0.00  0.00  0.00  0.00
  WS02004403WS02004404    1.00   0.00  0.03  0.00  0.97  0.00  0.00  0.00  0.04  0.00
  WS02004404WS02004405    1.00   0.00  0.00  0.00  1.00  0.00  0.00  0.00  0.00  0.00
  WS02004405WS02004406    1.00   0.00  0.00  0.00  1.00  0.00  0.00  0.00  0.04  0.00
  WS02004406WS02004407    1.00   0.00  0.08  0.00  0.91  0.00  0.00  0.00  0.00  0.00
  WS02004407WS02004409    1.00   0.09  0.00  0.00  0.89  0.03  0.00  0.00  0.54  0.00
  WS02004409WS02004410    1.00   0.09  0.00  0.00  0.91  0.00  0.00  0.00  0.00  0.00
  WS02004410WS02004411    1.00   0.09  0.00  0.00  0.91  0.00  0.00  0.00  0.00  0.00
  WS02004411WS02004412    1.00   0.09  0.00  0.00  0.91  0.00  0.00  0.00  0.00  0.00
  WS02004412WS02004413    1.00   0.09  0.00  0.00  0.90  0.01  0.00  0.00  0.00  0.00
  WS02004413WS02003067    1.00   0.10  0.02  0.00  0.00  0.00  0.89  0.00  0.00  0.00
  WS02006109WS02006110    1.00   0.00  0.01  0.00  0.99  0.00  0.00  0.00  0.00  0.00
  WS02006110WS02006113    1.00   0.01  0.00  0.00  0.99  0.00  0.00  0.00  0.00  0.00
  WS02006111WS02006112    1.00   0.01  0.00  0.00  0.98  0.00  0.00  0.00  0.65  0.00
  WS02006112WS02006115    1.00   0.01  0.01  0.00  0.97  0.00  0.00  0.00  0.00  0.00
  WS02006113WS02006111    1.00   0.01  0.00  0.00  0.37  0.61  0.00  0.00  0.13  0.00
  WS02006115WS02006116    1.00   0.02  0.00  0.00  0.95  0.00  0.00  0.03  0.01  0.00
  WS02006116WS02004401    1.00   0.02  0.00  0.00  0.98  0.00  0.00  0.00  0.01  0.00
  WS02006228WS02006109    1.00   0.00  0.00  0.00  1.00  0.00  0.00  0.00  0.00  0.00
  WS02006229WS02006228    1.00   0.00  0.00  0.00  0.99  0.00  0.00  0.01  0.00  0.00
  WS02006230WS02006229    1.00   0.00  0.00  0.00  0.99  0.00  0.00  0.01  0.02  0.00
  WS02006231WS02006230    1.00   0.00  0.00  0.00  0.93  0.00  0.07  0.00  0.00  0.00
  WS02006232WS02006231    1.00   0.00  0.00  0.00  0.99  0.00  0.00  0.00  0.00  0.00
  WS02006234WS02006232    1.00   0.00  0.00  0.00  1.00  0.00  0.00  0.00  0.12  0.00
  WS02006235WS02006234    1.00   0.00  0.00  0.00  0.95  0.00  0.05  0.00  0.00  0.00
  WS02006238WS02006235    1.00   0.00  0.00  0.00  1.00  0.00  0.00  0.00  0.00  0.00
  WS02006239WS02006238    1.00   0.00  0.00  0.00  1.00  0.00  0.00  0.00  0.07  0.00
  WS02006240WS02006239    1.00   0.00  0.00  0.00  0.92  0.00  0.00  0.07  0.01  0.00
  WS02006242WS02006240    1.00   0.00  0.00  0.00  0.98  0.00  0.02  0.00  0.00  0.00
  WS02006243WS02006242    1.00   0.01  0.00  0.00  0.98  0.00  0.00  0.01  0.21  0.00
  WS02006245WS02006243    1.00   0.01  0.01  0.00  0.92  0.00  0.00  0.06  0.00  0.00
  WS02006247WS02006245    1.00   0.01  0.00  0.00  0.94  0.00  0.00  0.04  0.00  0.00
  WS02006248WS02006247    1.00   0.01  0.00  0.00  0.97  0.00  0.00  0.02  0.03  0.00
  WS02006249WS02006248    1.00   0.00  0.01  0.00  0.92  0.00  0.07  0.00  0.00  0.00
  WS02006251WS02006249    1.00   0.00  0.00  0.00  1.00  0.00  0.00  0.00  0.20  0.00
  WS02006252WS02006251    1.00   0.10  0.00  0.00  0.52  0.00  0.37  0.00  0.00  0.00
  WS02006253WS02006251    1.00   0.02  0.02  0.00  0.94  0.00  0.01  0.00  0.00  0.00
  WS02006256WS02006235    1.00   0.00  0.00  0.00  1.00  0.00  0.00  0.00  0.00  0.00
  WS02006280WS02006229    1.00   0.06  0.00  0.00  0.34  0.02  0.00  0.58  0.00  0.00
  WS02006284WS02006280    1.00   0.06  0.00  0.00  0.25  0.02  0.00  0.67  0.00  0.00
  WS02006287WS02006284    1.00   0.04  0.02  0.00  0.55  0.39  0.00  0.00  0.53  0.00
  WSF200WS02003060        1.00   0.00  0.12  0.00  0.01  0.88  0.00  0.00  0.00  0.00
  YS02001580YS02001583    1.00   0.17  0.41  0.00  0.42  0.00  0.00  0.00  0.51  0.00
  YS02001583YS02001586    1.00   0.13  0.40  0.00  0.47  0.00  0.00  0.00  0.52  0.00
  YS02001586YS02001590    1.00   0.05  0.00  0.00  0.67  0.03  0.00  0.25  0.45  0.00
  YS02001590YS02001593    1.00   0.05  0.00  0.00  0.31  0.00  0.64  0.00  0.00  0.00
  YS02001593YS02001596    1.00   0.05  0.00  0.00  0.35  0.01  0.00  0.58  0.04  0.00
  YS02001596YS02001600    1.00   0.05  0.00  0.00  0.51  0.02  0.00  0.42  0.10  0.00
  YS02001600YS02001601    1.00   0.05  0.00  0.00  0.94  0.00  0.00  0.00  0.35  0.00
  YS02001601YS02001602    1.00   0.05  0.00  0.00  0.95  0.00  0.00  0.00  0.00  0.00
  YS02001602YS02001605    1.00   0.05  0.00  0.00  0.95  0.00  0.00  0.00  0.00  0.00
  YS02001605YS02001607    1.00   0.05  0.00  0.00  0.95  0.00  0.00  0.00  0.00  0.00
  YS02001607YS02001610    1.00   0.05  0.00  0.00  0.94  0.00  0.00  0.00  0.01  0.00
  YS02001610YS02001613    1.00   0.05  0.00  0.00  0.95  0.00  0.00  0.00  0.00  0.00
  YS02001613YS02001616    1.00   0.05  0.00  0.00  0.95  0.00  0.00  0.00  0.00  0.00
  YS02001616YS02001619    1.00   0.05  0.00  0.00  0.95  0.00  0.00  0.00  0.00  0.00
  YS02001619YS02001622    1.00   0.05  0.00  0.00  0.95  0.00  0.00  0.00  0.04  0.00
  YS02001622YS02001625    1.00   0.05  0.00  0.00  0.95  0.00  0.00  0.00  0.04  0.00
  YS02001625YS02001629    1.00   0.05  0.02  0.00  0.58  0.00  0.35  0.00  0.00  0.00
  YS02001629YS02163301    1.00   0.06  0.00  0.00  0.94  0.00  0.00  0.00  0.00  0.00
  YS02001633YS02163601    1.00   0.00  0.01  0.00  0.99  0.00  0.00  0.00  0.19  0.00
  YS02001641YS02001644    1.00   0.00  0.01  0.00  0.99  0.00  0.00  0.00  0.00  0.00
  YS02001644YS02001647    1.00   0.00  0.07  0.00  0.93  0.00  0.00  0.00  0.00  0.00
  YS02001647YS02001649    1.00   0.00  0.06  0.00  0.90  0.03  0.00  0.00  0.13  0.00
  YS02001649YS02001757    1.00   0.00  0.00  0.00  0.93  0.07  0.00  0.00  0.25  0.00
  YS02001652YS02001649    1.00   0.00  0.00  0.00  0.98  0.02  0.00  0.00  0.28  0.00
  YS02001655YS02001652    1.00   0.00  0.00  0.00  0.67  0.01  0.00  0.31  0.12  0.00
  YS02001658YS02001655    1.00   0.00  0.06  0.00  0.81  0.13  0.00  0.00  0.34  0.00
  YS02001661YS02001658    1.00   0.06  0.00  0.00  0.73  0.21  0.00  0.00  0.46  0.00
  YS02001664YS02001661    1.00   0.05  0.00  0.00  0.84  0.11  0.00  0.00  0.75  0.00
  YS02001745YS02001748    1.00   0.00  0.00  0.00  0.46  0.00  0.00  0.53  0.15  0.00
  YS02001748YS02001751    1.00   0.00  0.00  0.00  0.86  0.13  0.00  0.00  0.45  0.00
  YS02001751YS02001754    1.00   0.00  0.00  0.00  0.63  0.01  0.00  0.36  0.11  0.00
  YS02001754YS02001757    1.00   0.00  0.00  0.00  1.00  0.00  0.00  0.00  0.37  0.00
  YS02001757CaochengTiaoxuchi    1.00   0.00  0.00  0.00  1.00  0.00  0.00  0.00  0.11  0.00
  YS02001759YS02001757    1.00   0.00  0.00  0.00  1.00  0.00  0.00  0.00  0.19  0.00
  YS02001762YS02001759    1.00   0.00  0.00  0.00  1.00  0.00  0.00  0.00  0.04  0.00
  YS02001765YS02001762    1.00   0.00  0.00  0.00  1.00  0.00  0.00  0.00  0.20  0.00
  YS02001767YS02001765    1.00   0.00  0.00  0.00  1.00  0.00  0.00  0.00  0.01  0.00
  YS02001770YS02001767    1.00   0.00  0.00  0.00  1.00  0.00  0.00  0.00  0.00  0.00
  YS02001774YS02001770    1.00   0.00  0.05  0.00  0.95  0.00  0.00  0.00  0.03  0.00
  YS02001779YS02001774    1.00   0.00  0.00  0.00  1.00  0.00  0.00  0.00  0.33  0.00
  YS02001783YS02001784    1.00   0.00  0.07  0.00  0.93  0.00  0.00  0.00  0.40  0.00
  YS02001784YS02001785    1.00   0.00  0.00  0.00  1.00  0.00  0.00  0.00  0.21  0.00
  YS02001786YS02001788    1.00   0.00  0.00  0.00  0.61  0.39  0.00  0.00  0.00  0.00
  YS02001788YS02001790    1.00   0.00  0.00  0.00  0.15  0.85  0.00  0.00  0.71  0.00
  YS02001790YS02001791    1.00   0.00  0.00  0.00  0.02  0.98  0.00  0.00  0.21  0.00
  YS02001791YS02001793    1.00   0.00  0.00  0.00  0.01  0.99  0.00  0.00  0.01  0.00
  YS02001793JiankangQianchi    1.00   0.00  0.00  0.00  0.13  0.87  0.00  0.00  0.14  0.00
  YS02001882YS02001884    1.00   0.06  0.00  0.00  0.94  0.00  0.00  0.00  0.00  0.00
  YS02001884YS02001887    1.00   0.03  0.02  0.00  0.95  0.00  0.00  0.00  0.00  0.00
  YS02001887YS02001890    1.00   0.00  0.00  0.00  0.98  0.00  0.02  0.00  0.00  0.00
  YS02001890YS02001895    1.00   0.00  0.06  0.00  0.94  0.00  0.00  0.00  0.00  0.00
  YS02001895YS02001898    1.00   0.06  0.00  0.00  0.92  0.00  0.02  0.00  0.00  0.00
  YS02001898YS02001901    1.00   0.06  0.00  0.00  0.94  0.00  0.00  0.00  0.01  0.00
  YS02001901YS02001904    1.00   0.06  0.00  0.00  0.94  0.00  0.00  0.00  0.00  0.00
  YS02001904YS02001907    1.00   0.00  0.06  0.00  0.94  0.00  0.00  0.00  0.00  0.00
  YS02001907YS02006553    1.00   0.00  0.01  0.00  0.98  0.00  0.00  0.00  0.00  0.00
  YS02001910YS02001907    1.00   0.00  0.00  0.00  0.98  0.00  0.00  0.02  0.16  0.00
  YS02001915YS02001910    1.00   0.00  0.00  0.00  0.99  0.01  0.00  0.00  0.18  0.00
  YS02001918YS02001915    1.00   0.00  0.01  0.00  0.99  0.01  0.00  0.00  0.63  0.00
  YS02001920YS02001918    1.00   0.00  0.01  0.00  0.99  0.00  0.00  0.00  0.00  0.00
  YS02001923YS02001920    1.00   0.00  0.00  0.00  1.00  0.00  0.00  0.00  0.88  0.00
  YS02001926YS02001923    1.00   0.00  0.03  0.00  0.13  0.00  0.84  0.00  0.00  0.00
  YS02001929YS02001926    1.00   0.00  0.05  0.00  0.95  0.00  0.00  0.00  0.75  0.00
  YS02006553YS02006556    1.00   0.01  0.00  0.00  0.99  0.00  0.00  0.00  0.04  0.00
  YS02006556YS02006558    1.00   0.00  0.00  0.00  1.00  0.00  0.00  0.00  0.00  0.00
  YS02006558YS02006561    1.00   0.07  0.00  0.00  0.12  0.81  0.00  0.00  0.23  0.00
  YS02006561YS02001783    1.00   0.07  0.00  0.00  0.20  0.73  0.00  0.00  0.55  0.00
  YS02163301YS02001633    1.00   0.00  0.06  0.00  0.94  0.00  0.00  0.00  0.00  0.00
  YS02163601YS02164001    1.00   0.00  0.04  0.00  0.96  0.00  0.00  0.00  0.00  0.00
  YS02164001YS02001641    1.00   0.01  0.03  0.00  0.96  0.00  0.00  0.00  0.07  0.00
  YSB1154YSB6556          1.00   0.05  0.00  0.00  0.95  0.00  0.00  0.00  0.02  0.00
  YSB1171HS02004479       1.00   0.02  0.00  0.00  0.97  0.00  0.00  0.00  0.13  0.00
  YSB1174YSB1171          1.00   0.03  0.01  0.00  0.96  0.00  0.00  0.00  0.00  0.00
  YSB6556YSB1171          1.00   0.02  0.03  0.00  0.95  0.00  0.00  0.00  0.00  0.00
  
  
  *************************
  Conduit Surcharge Summary
  *************************
  
  ----------------------------------------------------------------------------
                                                           Hours        Hours 
                         --------- Hours Full --------   Above Full   Capacity
  Conduit                Both Ends  Upstream  Dnstream   Normal Flow   Limited
  ----------------------------------------------------------------------------
  HS02004478WS02006287        0.60      0.60      0.80      0.01         0.01
  HS02004479HS02004480        0.80      0.80      0.83      0.01         0.01
  HS02004480HS02004478        0.72      0.79      0.72      1.84         0.72
  HS02004770HS02004777        0.68      0.68      0.69      0.13         0.09
  HS02004777HS02004785        0.63      0.63      0.69      0.01         0.01
  HS02004785HS02004788        0.62      0.63      0.62      1.63         0.58
  HS02004788HS02004792        0.62      0.62      0.75      0.01         0.01
  HS02004792HS02004799        0.75      0.75      0.91      0.01         0.01
  HS02004799HS02004480        0.79      0.79      0.91      1.04         0.01
  HS02004802HS02004478        0.73      0.73      0.81      0.08         0.01
  HS02004807HS02004802        0.79      0.79      0.81      0.31         0.31
  HS02004817HS02004807        0.79      0.79      1.48      0.01         0.01
  HS02004817HS02004824        0.62      0.62      1.48      0.01         0.01
  HS02004824HS02004830        0.59      0.59      0.62      0.01         0.01
  HS02004830HS02004837        0.54      0.54      0.59      0.01         0.01
  HS02004837HS02004842        0.54      0.54      0.70      0.01         0.01
  HS02004842HS02004848        0.49      0.49      0.70      0.01         0.01
  HS02004848HS02004852        0.49      0.49      0.52      0.03         0.01
  HS02004852HS02004856        0.52      0.52      0.54      0.03         0.01
  HS02004856HS02004862        0.51      0.51      0.55      0.01         0.01
  HS02004862HS02004870        0.55      0.55      0.57      0.22         0.20
  HS02004870HS02004876        0.57      0.57      0.62      0.01         0.01
  HS02004876HS02004881        0.59      0.62      0.59      1.65         0.59
  HS02004881HS02006253        0.59      0.59      2.46      0.01         0.01
  HS02004901HS02004770        0.68      0.68      0.69      0.03         0.01
  WS02003072WS02003073        0.01      0.01      0.01      4.36         0.01
  WS02004401WS02004402        1.72      1.72      1.75      1.60         1.59
  WS02004402WS02004403        1.75      1.75      1.76      1.72         1.71
  WS02004403WS02004404        1.76      1.76      1.92      0.01         0.02
  WS02004404WS02004405        1.88      1.92      1.88      4.56         1.88
  WS02004405WS02004406        1.85      1.88      1.85      2.31         1.85
  WS02004406WS02004407        0.01      0.01      1.85      0.01         0.01
  WS02004407WS02004409        0.01      0.01      1.22      0.01         0.01
  WS02004409WS02004410        1.17      1.22      1.17      1.63         1.17
  WS02004410WS02004411        1.08      1.17      1.08      1.68         1.08
  WS02004411WS02004412        0.95      1.08      0.95      1.71         0.95
  WS02004412WS02004413        0.95      0.95      1.54      0.01         0.01
  WS02004413WS02003067        0.01      0.01      1.54      0.01         0.01
  WS02006109WS02006110        2.24      2.24      4.52      2.24         0.01
  WS02006110WS02006113        1.52      1.52      4.51      0.37         0.01
  WS02006111WS02006112        1.51      1.51      4.50      0.01         0.01
  WS02006112WS02006115        1.63      1.63      2.41      0.01         0.01
  WS02006113WS02006111        1.51      1.52      1.52      1.61         1.51
  WS02006115WS02006116        1.64      1.64      1.64      1.63         1.60
  WS02006116WS02004401        1.72      1.72      1.72      1.69         1.67
  WS02006228WS02006109        4.51      4.52      4.51      4.60         4.51
  WS02006229WS02006228        4.51      4.51      4.51      4.56         4.51
  WS02006230WS02006229        4.52      4.52      4.53      4.51         3.21
  WS02006231WS02006230        1.99      1.99      2.28      4.35         1.25
  WS02006232WS02006231        2.24      2.24      4.45      0.01         0.18
  WS02006234WS02006232        4.45      4.45      4.45      0.01         0.01
  WS02006235WS02006234        4.03      4.03      4.45      4.28         1.20
  WS02006238WS02006235        4.45      4.45      4.45      0.01         0.44
  WS02006239WS02006238        4.45      4.45      4.45      3.83         2.82
  WS02006240WS02006239        4.45      4.45      4.45      3.82         2.82
  WS02006242WS02006240        4.45      4.45      4.45      3.91         1.09
  WS02006243WS02006242        4.45      4.45      4.45      0.01         0.01
  WS02006245WS02006243        4.45      4.45      4.45      2.80         2.81
  WS02006247WS02006245        4.45      4.45      4.45      4.13         2.98
  WS02006248WS02006247        4.45      4.45      4.45      0.01         0.01
  WS02006249WS02006248        4.44      4.44      4.45      2.93         0.01
  WS02006251WS02006249        4.45      4.47      4.45      4.48         4.43
  WS02006252WS02006251        4.48      4.49      4.49      3.80         0.01
  WS02006253WS02006251        4.46      4.46      4.47      0.95         0.01
  WS02006256WS02006235        4.54      4.55      4.90      0.34         0.01
  WS02006280WS02006229        0.96      0.96      1.13      0.01         0.01
  WS02006284WS02006280        0.83      0.83      0.93      0.01         0.01
  WS02006287WS02006284        0.71      0.71      0.84      0.35         0.35
  YS02001580YS02001583        0.74      0.74      0.81      0.01         0.01
  YS02001583YS02001586        0.75      0.75      0.99      0.01         0.01
  YS02001586YS02001590        1.00      1.00      1.11      0.01         0.01
  YS02001590YS02001593        1.11      1.11      1.15      1.09         0.01
  YS02001593YS02001596        1.13      1.13      1.30      0.01         0.01
  YS02001596YS02001600        1.37      1.37      1.50      0.01         0.01
  YS02001600YS02001601        1.58      1.58      1.84      0.01         0.01
  YS02001601YS02001602        1.76      1.76      1.88      1.36         0.01
  YS02001602YS02001605        1.73      1.73      1.76      2.44         0.01
  YS02001605YS02001607        1.69      1.73      1.72      1.58         1.45
  YS02001607YS02001610        1.26      1.26      1.30      0.01         0.01
  YS02001610YS02001613        1.26      1.26      1.30      0.01         0.01
  YS02001613YS02001616        1.22      1.22      1.26      0.01         0.01
  YS02001616YS02001619        1.21      1.21      1.22      0.01         0.02
  YS02001619YS02001622        1.21      1.21      1.21      0.95         0.79
  YS02001622YS02001625        1.21      1.21      1.46      0.01         0.01
  YS02001625YS02001629        1.18      1.18      1.46      0.01         0.01
  YS02001629YS02163301        1.49      1.49      1.50      0.06         0.06
  YS02001633YS02163601        1.53      1.53      1.59      0.10         0.10
  YS02001641YS02001644        1.50      1.51      1.50      1.79         1.41
  YS02001644YS02001647        1.33      1.33      1.50      0.01         0.01
  YS02001647YS02001649        1.33      1.33      1.47      0.01         0.01
  YS02001649YS02001757        1.47      1.47      1.94      0.02         0.02
  YS02001652YS02001649        1.32      1.32      1.47      0.01         0.01
  YS02001655YS02001652        0.91      0.91      1.29      0.01         0.01
  YS02001658YS02001655        0.51      0.51      0.91      0.01         0.01
  YS02001661YS02001658        0.01      0.01      0.51      0.01         0.01
  YS02001664YS02001661        0.01      0.01      0.11      0.01         0.01
  YS02001745YS02001748        0.01      0.01      0.40      0.01         0.01
  YS02001748YS02001751        0.51      0.51      0.83      0.01         0.01
  YS02001751YS02001754        0.83      0.83      1.26      0.01         0.01
  YS02001754YS02001757        1.30      1.30      1.94      0.01         0.01
  YS02001757CaochengTiaoxuchi        1.94      1.94      4.05      0.27         0.27
  YS02001759YS02001757        1.57      1.57      1.94      0.01         0.01
  YS02001762YS02001759        1.45      1.45      1.57      0.01         0.01
  YS02001765YS02001762        1.41      1.41      1.45      0.01         0.01
  YS02001767YS02001765        1.38      1.38      1.41      0.01         0.02
  YS02001770YS02001767        1.38      1.38      1.38      0.58         0.57
  YS02001774YS02001770        1.36      1.36      1.43      0.01         0.01
  YS02001779YS02001774        1.23      1.23      1.43      0.01         0.01
  YS02001783YS02001784        0.61      0.65      0.61      0.84         0.61
  YS02001784YS02001785        0.49      0.61      0.49      1.15         0.49
  YS02001786YS02001788        0.02      0.49      0.02      0.97         0.02
  YS02001788YS02001790        0.02      0.02      0.03      0.01         0.01
  YS02001790YS02001791        0.03      0.03      0.03      0.60         0.02
  YS02001791YS02001793        0.03      0.03      0.05      0.01         0.01
  YS02001793JiankangQianchi        0.04      0.04      0.56      0.01         0.01
  YS02001882YS02001884        0.58      0.58      0.59      0.01         0.01
  YS02001884YS02001887        0.62      0.62      0.63      0.01         0.01
  YS02001887YS02001890        0.65      0.65      0.66      0.09         0.01
  YS02001890YS02001895        0.56      0.56      0.69      0.01         0.01
  YS02001895YS02001898        0.56      0.56      0.56      0.01         0.01
  YS02001898YS02001901        0.57      0.57      0.62      0.01         0.01
  YS02001901YS02001904        0.60      0.60      0.62      0.01         0.01
  YS02001904YS02001907        0.60      0.60      0.95      0.01         0.01
  YS02001907YS02006553        1.16      1.16      1.25      0.01         0.01
  YS02001910YS02001907        0.68      0.68      0.91      0.01         0.01
  YS02001915YS02001910        0.57      0.57      0.68      0.01         0.01
  YS02001918YS02001915        0.47      0.47      0.57      0.01         0.01
  YS02001920YS02001918        0.47      0.47      0.49      0.01         0.01
  YS02001923YS02001920        0.42      0.42      0.49      0.01         0.01
  YS02001926YS02001923        0.05      0.05      0.09      0.01         0.01
  YS02001929YS02001926        0.01      0.01      0.09      0.01         0.01
  YS02006553YS02006556        0.80      0.80      0.94      0.01         0.01
  YS02006556YS02006558        0.87      0.87      0.96      0.01         0.01
  YS02006558YS02006561        0.51      0.78      0.51      1.08         0.51
  YS02006561YS02001783        0.44      0.44      0.65      0.01         0.01
  YS02163301YS02001633        1.50      1.50      1.56      0.01         0.01
  YS02163601YS02164001        1.51      1.51      1.59      0.07         0.01
  YS02164001YS02001641        1.50      1.51      1.51      0.53         0.45
  YSB1154YSB6556              0.87      0.87      1.08      0.01         0.01
  YSB1171HS02004479           0.74      0.74      1.08      0.01         0.01
  YSB1174YSB1171              0.95      0.95      1.42      0.01         0.01
  YSB6556YSB1171              0.87      0.87      1.54      0.01         0.01
  
  
  ***************
  Pumping Summary
  ***************
  
  ---------------------------------------------------------------------------------------------------------
                                                  Min       Avg       Max     Total     Power    % Time Off
                        Percent   Number of      Flow      Flow      Flow    Volume     Usage    Pump Curve
  Pump                 Utilized   Start-Ups       LPS       LPS       LPS  10^6 ltr     Kw-hr    Low   High
  ---------------------------------------------------------------------------------------------------------
  CC-R1                   19.46           2      0.00    683.00    683.00     2.871     59.23    0.0   76.3
  CC-R2                   11.12           2      0.00    683.00    683.00     1.640     34.03    0.0   87.7
  CC-S1                   72.09           2      0.00    200.00    200.00     3.114     16.10    0.0   24.4
  CC-S2                   69.31           3      0.00    200.00    200.00     2.994     15.58    0.0   21.4
  JK-R1                   86.10           5      0.00    269.14   1000.00     3.371     12.47    0.0    0.0
  JK-R2                   25.04           6      0.00    565.23   1000.00     1.959      7.65    0.0    0.0
  JK-S                    27.84           5      0.00    199.68    300.00     0.774     14.83    0.0    0.0
  XR-1                    97.20           1      0.00     95.00     95.00     1.995      8.82    0.0    0.0
  XR-2                    91.96           1      0.00     95.00     95.00     1.887      7.99    0.0    0.0
  XR-3                     0.00           0      0.00      0.00      0.00     0.000      0.00    0.0    0.0
  XR-4                     0.00           0      0.00      0.00      0.00     0.000      0.00    0.0    0.0
  

  Analysis begun on:  Sat Aug 27 11:16:41 2022
  Analysis ended on:  Sat Aug 27 11:16:44 2022
  Total elapsed time: 00:00:03