
  EPA STORM WATER MANAGEMENT MODEL - VERSION 5.1 (Build 5.3.0.dev0)
  --------------------------------------------------------------

  WARNING 04: minimum elevation drop used for Conduit WS02004404WS02004405
  WARNING 03: negative offset ignored for Link YS02001904YS02001907
  
  *********************************************************
  NOTE: The summary statistics displayed in this report are
  based on results found at every computational time step,  
  not just on results from each reporting time step.
  *********************************************************
  
  ****************
  Analysis Options
  ****************
  Flow Units ............... LPS
  Process Models:
    Rainfall/Runoff ........ YES
    RDII ................... NO
    Snowmelt ............... NO
    Groundwater ............ NO
    Flow Routing ........... YES
    Ponding Allowed ........ NO
    Water Quality .......... NO
  Infiltration Method ...... HORTON
  Flow Routing Method ...... DYNWAVE
  Surcharge Method ......... EXTRAN
  Starting Date ............ 01/01/2000 00:00:00
  Ending Date .............. 01/01/2000 06:00:00
  Antecedent Dry Days ...... 8.0
  Report Time Step ......... 00:01:00
  Wet Time Step ............ 00:01:00
  Dry Time Step ............ 00:01:00
  Routing Time Step ........ 30.00 sec
  Variable Time Step ....... YES
  Maximum Trials ........... 8
  Number of Threads ........ 4
  Head Tolerance ........... 0.001500 m
  
  
  **************************        Volume         Depth
  Runoff Quantity Continuity     hectare-m            mm
  **************************     ---------       -------
  Total Precipitation ......         3.069        50.665
  Evaporation Loss .........         0.000         0.000
  Infiltration Loss ........         0.219         3.610
  Surface Runoff ...........         2.787        46.015
  Final Storage ............         0.064         1.060
  Continuity Error (%) .....        -0.039
  
  
  **************************        Volume        Volume
  Flow Routing Continuity        hectare-m      10^6 ltr
  **************************     ---------     ---------
  Dry Weather Inflow .......         0.472         4.722
  Wet Weather Inflow .......         2.788        27.880
  Groundwater Inflow .......         0.000         0.000
  RDII Inflow ..............         0.000         0.000
  External Inflow ..........         0.078         0.784
  External Outflow .........         2.404        24.040
  Flooding Loss ............         1.245        12.452
  Evaporation Loss .........         0.000         0.000
  Exfiltration Loss ........         0.000         0.000
  Initial Stored Volume ....         0.303         3.031
  Final Stored Volume ......         0.171         1.709
  Continuity Error (%) .....        -4.900
  
  
  *************************
  Highest Continuity Errors
  *************************
  Node JK-storage (-44.85%)
  Node YS02001583 (-13.58%)
  Node YS02001884 (5.26%)
  Node CC-storage (-2.06%)
  Node HS02004842 (1.95%)
  
  
  ***************************
  Time-Step Critical Elements
  ***************************
  Link WS02006252WS02006251 (53.31%)
  Link WS02006280WS02006229 (14.82%)
  Link WS02006238WS02006235 (12.61%)
  Link YS02001793JiankangQianchi (5.90%)
  Link WS02003066WSF200 (2.66%)
  
  
  ********************************
  Highest Flow Instability Indexes
  ********************************
  Link WS02006113WS02006111 (38)
  Link WS02006111WS02006112 (16)
  Link WS02006238WS02006235 (15)
  Link WS02004404WS02004405 (13)
  Link WS02006229WS02006228 (12)
  
  
  *************************
  Routing Time Step Summary
  *************************
  Minimum Time Step           :     0.49 sec
  Average Time Step           :     1.53 sec
  Maximum Time Step           :     7.54 sec
  Percent in Steady State     :    -0.00
  Average Iterations per Step :     2.87
  Percent Not Converging      :     7.48
  
  
  ***************************
  Subcatchment Runoff Summary
  ***************************
  
  ------------------------------------------------------------------------------------------------------------------------------
                            Total      Total      Total      Total     Imperv       Perv      Total       Total     Peak  Runoff
                           Precip      Runon       Evap      Infil     Runoff     Runoff     Runoff      Runoff   Runoff   Coeff
  Subcatchment                 mm         mm         mm         mm         mm         mm         mm    10^6 ltr      LPS
  ------------------------------------------------------------------------------------------------------------------------------
  sub0                      50.66       0.00       0.00       0.93      45.87       2.62      48.49        0.04    35.44   0.957
  sub1                      50.66       0.00       0.00       1.56      43.80       4.02      47.82        0.32   227.25   0.944
  sub10                     50.66       0.00       0.00       1.10      45.29       2.95      48.25        0.53   394.83   0.952
  sub11                     50.66       0.00       0.00       1.09      45.33       2.97      48.29        0.56   448.80   0.953
  sub12                     50.66       0.00       0.00       1.77      42.90       4.82      47.72        0.42   363.84   0.942
  sub14                     50.66       0.00       0.00       1.24      44.82       3.32      48.14        0.46   353.60   0.950
  sub15                     50.66       0.00       0.00       4.81      34.47      10.40      44.87        0.77   510.63   0.886
  sub16                     50.66       0.00       0.00       4.97      33.03      11.75      44.78        0.47   353.08   0.884
  sub17                     50.66       0.00       0.00       4.85      33.52      11.37      44.89        0.39   286.51   0.886
  sub2                      50.66       0.00       0.00       6.87      30.97      11.88      42.85        0.40   210.03   0.846
  sub22                     50.66       0.00       0.00       7.29      28.09      14.51      42.59        2.69  1678.70   0.841
  sub23                     50.66       0.00       0.00       5.94      31.05      12.81      43.86        2.09  1416.05   0.866
  sub3                      50.66       0.00       0.00       7.46      30.90      11.29      42.19        0.95   449.47   0.833
  sub4                      50.66       0.00       0.00       1.73      43.52       3.85      47.37        0.99   504.57   0.935
  sub5                      50.66       0.00       0.00       0.96      45.77       2.59      48.36        0.55   396.15   0.954
  sub60                     50.66       0.00       0.00       1.66      43.36       4.42      47.79        0.63   506.92   0.943
  sub61                     50.66       0.00       0.00       2.40      40.91       6.22      47.12        0.86   697.48   0.930
  sub62                     50.66       0.00       0.00       1.11      45.28       2.95      48.23        1.32   960.42   0.952
  sub63                     50.66       0.00       0.00       4.41      34.99      10.29      45.28        1.03   751.01   0.894
  sub64                     50.66       0.00       0.00       2.23      41.81       5.37      47.18        1.13   744.78   0.931
  sub65                     50.66       0.00       0.00       1.93      42.76       4.66      47.42        1.31   816.09   0.936
  sub66                     50.66       0.00       0.00       5.46      34.80       9.23      44.03        2.05  1015.21   0.869
  sub67                     50.66       0.00       0.00       1.08      45.36       2.98      48.34        0.90   777.46   0.954
  sub68                     50.66       0.00       0.00       1.99      42.36       5.11      47.47        1.31   991.36   0.937
  sub69                     50.66       0.00       0.00       1.72      42.88       5.89      48.77        1.81  1102.89   0.963
  sub7                      50.66       0.00       0.00       1.23      44.85       3.34      48.18        0.16   133.62   0.951
  sub70                     50.66       0.00       0.00       5.80      33.17      11.43      44.60        1.29   578.55   0.880
  sub71                     50.66       0.00       0.00       1.13      45.21       2.92      48.13        1.26   801.75   0.950
  sub72                     50.66       0.00       0.00       1.01      45.60       2.54      48.14        0.66   366.58   0.950
  sub8                      50.66       0.00       0.00       1.24      44.83       3.33      48.16        0.31   242.01   0.950
  sub9                      50.66       0.00       0.00       1.24      44.82       3.33      48.15        0.23   180.25   0.950
  
  
  ******************
  Node Depth Summary
  ******************
  
  ---------------------------------------------------------------------------------
                                 Average  Maximum  Maximum  Time of Max    Reported
                                   Depth    Depth      HGL   Occurrence   Max Depth
  Node                 Type       Meters   Meters   Meters  days hr:min      Meters
  ---------------------------------------------------------------------------------
  HS02004478           JUNCTION     0.19     1.59    10.82     0  01:43        1.58
  HS02004479           JUNCTION     0.26     1.80    11.00     0  01:41        1.67
  HS02004480           JUNCTION     0.22     1.77    11.01     0  01:41        1.64
  HS02004770           JUNCTION     0.23     1.42    11.25     0  01:41        1.42
  HS02004777           JUNCTION     0.25     1.48    11.28     0  01:41        1.45
  HS02004785           JUNCTION     0.16     1.49    11.39     0  01:41        1.34
  HS02004788           JUNCTION     0.13     1.42    11.32     0  01:41        1.34
  HS02004792           JUNCTION     0.18     1.60    11.12     0  01:40        1.60
  HS02004799           JUNCTION     0.28     1.76    10.97     0  01:41        1.76
  HS02004802           JUNCTION     0.28     1.81    10.94     0  01:43        1.80
  HS02004807           JUNCTION     0.26     1.92    11.09     0  01:42        1.92
  HS02004817           JUNCTION     0.55     2.44    11.29     0  01:43        2.32
  HS02004824           JUNCTION     0.15     2.01    11.41     0  01:41        1.85
  HS02004830           JUNCTION     0.15     2.03    11.50     0  01:42        1.82
  HS02004837           JUNCTION     0.13     2.00    11.58     0  01:42        1.76
  HS02004842           JUNCTION     0.41     2.22    11.49     0  01:43        2.12
  HS02004848           JUNCTION     0.11     2.00    11.61     0  01:43        1.83
  HS02004852           JUNCTION     0.11     2.05    11.56     0  01:43        1.90
  HS02004856           JUNCTION     0.17     2.07    11.50     0  01:43        1.97
  HS02004862           JUNCTION     0.12     2.00    11.38     0  01:43        1.97
  HS02004870           JUNCTION     0.12     2.10    11.39     0  01:43        1.94
  HS02004876           JUNCTION     0.16     2.17    11.20     0  01:43        2.02
  HS02004881           JUNCTION     0.11     2.15    11.18     0  01:43        1.77
  HS02004901           JUNCTION     0.24     1.42    11.24     0  01:40        1.42
  WS02001211           JUNCTION     0.61     0.88     5.72     0  01:48        0.88
  WS02001212           JUNCTION     0.36     0.66     5.72     0  01:48        0.62
  WS02001213           JUNCTION     0.57     0.98     5.74     0  01:47        0.96
  WS02003059           JUNCTION     0.63     0.99     5.67     0  01:50        0.95
  WS02003060           JUNCTION     0.37     0.70     5.63     0  01:50        0.70
  WS02003066           JUNCTION     0.22     0.47     6.02     0  01:42        0.47
  WS02003067           JUNCTION     0.52     0.96     6.28     0  01:42        0.93
  WS02003069           JUNCTION     0.41     0.78     5.37     0  01:51        0.78
  WS02003072           JUNCTION     0.47     0.82     5.19     0  01:50        0.82
  WS02003073           JUNCTION     0.28     0.52     4.59     0  01:51        0.52
  WS02004138           JUNCTION     0.13     0.14     7.39     0  00:29        0.14
  WS02004139           JUNCTION     0.55     0.79     5.70     0  01:46        0.77
  WS02004401           JUNCTION     0.72     2.57     8.57     0  01:40        1.86
  WS02004402           JUNCTION     0.73     2.51     8.47     0  01:40        1.81
  WS02004403           JUNCTION     0.74     2.38     8.31     0  01:40        1.73
  WS02004404           JUNCTION     0.80     2.36     8.21     0  01:40        1.74
  WS02004405           JUNCTION     0.80     2.33     8.18     0  01:40        1.70
  WS02004406           JUNCTION     0.79     3.09     8.92     0  01:40        1.57
  WS02004407           JUNCTION     0.25     0.96     7.27     0  01:44        0.94
  WS02004409           JUNCTION     0.50     1.42     7.19     0  01:42        1.39
  WS02004410           JUNCTION     0.51     1.48     7.20     0  01:42        1.29
  WS02004411           JUNCTION     0.51     1.52     7.20     0  01:42        1.20
  WS02004412           JUNCTION     0.52     1.39     7.03     0  01:42        1.10
  WS02004413           JUNCTION     0.65     2.16     7.63     0  01:42        1.14
  WS02006109           JUNCTION     0.90     2.64     9.26     0  01:40        2.64
  WS02006110           JUNCTION     0.85     2.76     9.34     0  01:40        2.38
  WS02006111           JUNCTION     0.37     2.68     9.39     0  01:40        1.73
  WS02006112           JUNCTION     0.91     2.68     8.56     0  01:40        2.38
  WS02006113           JUNCTION     0.45     2.73     9.62     0  01:40        1.82
  WS02006115           JUNCTION     0.64     2.49     8.63     0  01:40        1.96
  WS02006116           JUNCTION     0.70     2.59     8.63     0  01:40        1.95
  WS02006228           JUNCTION     0.94     3.03     9.68     0  01:40        3.02
  WS02006229           JUNCTION     0.94     3.25     9.94     0  01:40        3.22
  WS02006230           JUNCTION     0.88     2.65     9.39     0  01:40        2.65
  WS02006231           JUNCTION     0.64     2.20     9.32     0  01:40        2.19
  WS02006232           JUNCTION     0.74     2.18     9.22     0  01:40        2.18
  WS02006234           JUNCTION     0.64     1.96     9.12     0  01:40        1.96
  WS02006235           JUNCTION     0.65     1.94     9.11     0  02:00        1.93
  WS02006238           JUNCTION     0.68     1.95     9.10     0  02:00        1.93
  WS02006239           JUNCTION     0.63     2.03     9.24     0  01:39        1.78
  WS02006240           JUNCTION     0.58     2.06     9.35     0  01:39        1.62
  WS02006242           JUNCTION     0.63     1.55     8.82     0  01:39        1.55
  WS02006243           JUNCTION     0.52     1.48     8.90     0  01:39        1.44
  WS02006245           JUNCTION     0.51     1.56     9.04     0  01:39        1.37
  WS02006247           JUNCTION     0.52     1.47     8.97     0  01:40        1.22
  WS02006248           JUNCTION     0.47     1.10     8.69     0  01:40        1.10
  WS02006249           JUNCTION     0.50     1.09     8.69     0  01:40        1.09
  WS02006251           JUNCTION     0.56     2.21     9.88     0  01:43        2.13
  WS02006252           JUNCTION     0.41     1.50     9.74     0  01:40        1.50
  WS02006253           JUNCTION     0.63     3.52    11.16     0  01:40        3.04
  WS02006256           JUNCTION     0.95     2.35     9.28     0  00:06        2.35
  WS02006280           JUNCTION     0.24     1.83    10.10     0  01:40        1.73
  WS02006284           JUNCTION     0.50     2.08    10.48     0  01:40        1.94
  WS02006287           JUNCTION     0.24     1.75    10.70     0  01:43        1.73
  WSF200               JUNCTION     0.21     0.57     5.81     0  01:43        0.57
  YS02001580           JUNCTION     0.07     1.05     9.59     0  01:41        0.80
  YS02001583           JUNCTION     0.10     1.14     9.64     0  01:41        1.14
  YS02001586           JUNCTION     0.16     1.13     9.30     0  01:41        1.13
  YS02001590           JUNCTION     0.25     1.40     9.26     0  01:40        1.37
  YS02001593           JUNCTION     0.18     1.46     9.32     0  01:40        1.28
  YS02001596           JUNCTION     0.24     1.80     9.22     0  01:40        1.65
  YS02001600           JUNCTION     0.29     1.87     9.00     0  01:40        1.86
  YS02001601           JUNCTION     0.47     2.06     8.90     0  01:40        2.06
  YS02001602           JUNCTION     0.39     1.87     8.77     0  01:42        1.87
  YS02001605           JUNCTION     0.36     1.78     8.68     0  01:42        1.77
  YS02001607           JUNCTION     0.36     1.68     8.53     0  01:42        1.64
  YS02001610           JUNCTION     0.40     1.68     8.48     0  01:42        1.68
  YS02001613           JUNCTION     0.36     1.70     8.54     0  01:42        1.65
  YS02001616           JUNCTION     0.30     1.61     8.52     0  01:42        1.58
  YS02001619           JUNCTION     0.28     1.61     8.54     0  01:42        1.57
  YS02001622           JUNCTION     0.27     1.62     8.52     0  01:42        1.55
  YS02001625           JUNCTION     0.50     1.78     8.38     0  01:42        1.78
  YS02001629           JUNCTION     0.37     1.85     8.40     0  01:42        1.85
  YS02001633           JUNCTION     0.44     2.06     8.52     0  01:43        2.03
  YS02001641           JUNCTION     0.43     1.99     8.43     0  01:43        1.95
  YS02001644           JUNCTION     0.42     1.92     8.35     0  01:43        1.92
  YS02001647           JUNCTION     0.23     1.86     8.47     0  01:43        1.77
  YS02001649           JUNCTION     0.26     2.05     8.44     0  01:43        2.02
  YS02001652           JUNCTION     0.17     2.16     8.76     0  01:44        1.88
  YS02001655           JUNCTION     0.12     2.20     9.05     0  01:43        1.70
  YS02001658           JUNCTION     0.09     2.30     9.44     0  01:44        1.50
  YS02001661           JUNCTION     0.13     2.28     9.68     0  01:44        1.32
  YS02001664           JUNCTION     0.05     0.98     8.91     0  01:45        0.84
  YS02001745           JUNCTION     0.05     2.35     9.87     0  01:44        0.81
  YS02001748           JUNCTION     0.08     2.27     9.35     0  01:44        1.25
  YS02001751           JUNCTION     0.10     2.20     9.08     0  01:44        1.44
  YS02001754           JUNCTION     0.15     2.20     8.81     0  01:43        1.71
  YS02001757           JUNCTION     0.28     2.21     8.47     0  01:44        2.05
  YS02001759           JUNCTION     0.23     2.21     8.57     0  01:44        2.04
  YS02001762           JUNCTION     0.22     2.15     8.55     0  01:44        2.02
  YS02001765           JUNCTION     0.21     2.10     8.55     0  01:44        1.98
  YS02001767           JUNCTION     0.21     2.03     8.52     0  01:43        1.95
  YS02001770           JUNCTION     0.22     1.95     8.44     0  01:43        1.95
  YS02001774           JUNCTION     0.27     2.00     8.43     0  01:43        1.99
  YS02001779           JUNCTION     0.13     1.68     8.37     0  01:43        1.68
  YS02001783           JUNCTION     0.21     1.71     7.85     0  01:57        1.45
  YS02001784           JUNCTION     0.23     1.71     7.78     0  01:57        1.40
  YS02001786           JUNCTION     0.20     1.60     7.63     0  01:57        1.25
  YS02001788           JUNCTION     0.14     2.28     8.26     0  01:57        1.12
  YS02001790           JUNCTION     0.17     1.64     7.28     0  01:57        1.28
  YS02001791           JUNCTION     0.12     1.54     7.01     0  01:57        1.26
  YS02001793           JUNCTION     0.11     1.80     6.64     0  02:00        1.79
  YS02001882           JUNCTION     0.26     1.83     8.55     0  01:42        1.64
  YS02001884           JUNCTION     0.35     1.93     8.55     0  01:42        1.73
  YS02001887           JUNCTION     0.42     2.00     8.54     0  01:42        1.82
  YS02001890           JUNCTION     0.45     1.81     8.32     0  01:42        1.81
  YS02001895           JUNCTION     0.24     1.75     8.50     0  01:42        1.57
  YS02001898           JUNCTION     0.24     1.77     8.51     0  01:42        1.58
  YS02001901           JUNCTION     0.35     1.84     8.45     0  01:42        1.69
  YS02001904           JUNCTION     0.33     1.67     8.30     0  01:42        1.65
  YS02001907           JUNCTION     0.63     1.96     8.25     0  01:42        1.96
  YS02001910           JUNCTION     0.44     2.10     8.61     0  01:42        2.08
  YS02001915           JUNCTION     0.27     2.00     8.72     0  01:42        2.00
  YS02001918           JUNCTION     0.15     1.81     8.88     0  01:42        1.81
  YS02001920           JUNCTION     0.22     2.14     9.15     0  01:43        1.83
  YS02001923           JUNCTION     0.11     2.03     9.29     0  01:43        1.54
  YS02001926           JUNCTION     0.14     1.90     9.35     0  01:43        1.34
  YS02001929           JUNCTION     0.08     1.78     9.47     0  01:43        1.10
  YS02006553           JUNCTION     0.63     2.02     8.30     0  01:57        1.98
  YS02006556           JUNCTION     0.61     2.06     8.37     0  01:57        1.95
  YS02006558           JUNCTION     0.65     2.13     8.40     0  01:57        1.99
  YS02006561           JUNCTION     0.13     1.29     7.95     0  01:57        1.06
  YS02163301           JUNCTION     0.39     1.95     8.46     0  01:43        1.92
  YS02163601           JUNCTION     0.48     2.08     8.48     0  01:43        2.05
  YS02164001           JUNCTION     0.42     2.01     8.47     0  01:43        1.96
  YSB1154              JUNCTION     0.38     2.03    11.09     0  01:41        1.91
  YSB1171              JUNCTION     0.52     1.95    10.85     0  01:41        1.95
  YSB1174              JUNCTION     0.34     1.91    11.02     0  01:41        1.80
  YSB6556              JUNCTION     0.29     1.80    10.97     0  01:41        1.75
  CC-1                 OUTFALL      0.00     0.00     0.00     0  00:00        0.00
  CC-2                 OUTFALL      0.00     0.00     0.00     0  00:00        0.00
  JK-1                 OUTFALL      0.00     0.00     0.00     0  00:00        0.00
  JK-2                 OUTFALL      0.00     0.00     0.00     0  00:00        0.00
  WSC                  OUTFALL      0.28     0.52     1.19     0  01:51        0.52
  CC-storage           STORAGE      0.46     1.54     7.04     0  02:30        1.53
  JK-storage           STORAGE      0.44     5.80     6.60     0  01:57        5.80
  XR-storage           STORAGE      7.70     8.66     6.66     0  06:00        8.66
  
  
  *******************
  Node Inflow Summary
  *******************
  
  -------------------------------------------------------------------------------------------------
                                  Maximum  Maximum                  Lateral       Total        Flow
                                  Lateral    Total  Time of Max      Inflow      Inflow     Balance
                                   Inflow   Inflow   Occurrence      Volume      Volume       Error
  Node                 Type           LPS      LPS  days hr:min    10^6 ltr    10^6 ltr     Percent
  -------------------------------------------------------------------------------------------------
  HS02004478           JUNCTION      0.00  2306.79     0  01:44           0        6.94      -0.021
  HS02004479           JUNCTION      0.00   588.67     0  01:42           0       0.659       0.121
  HS02004480           JUNCTION      0.00  2229.82     0  01:42           0        5.18       0.043
  HS02004770           JUNCTION   1416.05  1416.05     0  01:45        2.09        2.29       0.128
  HS02004777           JUNCTION      0.03   995.45     0  01:41    0.000648        1.53       0.343
  HS02004785           JUNCTION      0.15   995.65     0  01:41     0.00324        1.52       0.012
  HS02004788           JUNCTION    512.30   976.18     0  01:41       0.808        2.33      -0.015
  HS02004792           JUNCTION   1678.98  2474.98     0  01:45         2.7        5.02       0.001
  HS02004799           JUNCTION    353.60  1686.38     0  01:41       0.458        4.64       0.052
  HS02004802           JUNCTION      0.00  1181.60     0  01:45           0        1.83       0.220
  HS02004807           JUNCTION    448.80  1186.29     0  01:45       0.561        1.87       0.209
  HS02004817           JUNCTION      0.60   741.90     0  01:45       0.013        1.36       1.217
  HS02004824           JUNCTION    504.62   840.98     0  01:42       0.989        1.53       0.040
  HS02004830           JUNCTION      0.15   840.81     0  01:42     0.00324       0.712       0.095
  HS02004837           JUNCTION    401.18  1143.25     0  01:42       0.669        1.03       0.100
  HS02004842           JUNCTION      0.00  1054.99     0  01:42           0       0.685       1.985
  HS02004848           JUNCTION    449.47  1326.42     0  01:42        0.95        1.48      -0.011
  HS02004852           JUNCTION      0.00  1377.24     0  01:42           0        1.34       0.027
  HS02004856           JUNCTION    180.25  1415.75     0  01:42       0.232        1.58       0.108
  HS02004862           JUNCTION    210.23  1592.92     0  01:43       0.404        1.98      -0.007
  HS02004870           JUNCTION    242.01  1727.00     0  01:43       0.308        2.28      -0.027
  HS02004876           JUNCTION    227.25  1467.33     0  01:44       0.318        2.59       0.024
  HS02004881           JUNCTION    133.62  1592.51     0  01:44       0.162        2.75       0.018
  HS02004901           JUNCTION    353.08   533.88     0  01:50       0.469       0.707       0.227
  WS02001211           JUNCTION      7.35   355.79     0  01:46       0.159        4.03       0.824
  WS02001212           JUNCTION      0.00   463.08     0  01:44           0           4       0.391
  WS02001213           JUNCTION      0.00   397.79     0  01:44           0           4       0.442
  WS02003059           JUNCTION      0.00   475.26     0  01:43           0        4.01       0.807
  WS02003060           JUNCTION     16.53  1577.73     0  01:50       0.357        12.3       0.127
  WS02003066           JUNCTION      0.00  1336.42     0  01:44           0        7.94       0.023
  WS02003067           JUNCTION      0.00  1309.28     0  01:44           0        7.95       0.060
  WS02003069           JUNCTION      0.32  1533.12     0  01:49     0.00691        12.2       0.134
  WS02003072           JUNCTION      0.00  1522.62     0  01:49           0        12.2       0.180
  WS02003073           JUNCTION      1.82  1528.41     0  01:50      0.0393        12.2       0.188
  WS02004138           JUNCTION      0.00   190.00     0  00:29           0        3.88       0.071
  WS02004139           JUNCTION      0.32   328.73     0  01:45     0.00693        3.89       0.686
  WS02004401           JUNCTION      0.00  1331.64     0  01:42           0        8.06       0.141
  WS02004402           JUNCTION      0.00  1331.54     0  01:42           0        8.05       0.141
  WS02004403           JUNCTION      0.00  1331.37     0  01:42           0        8.04       0.133
  WS02004404           JUNCTION      0.16  1331.22     0  01:42      0.0035        8.03       0.111
  WS02004405           JUNCTION      0.04  1331.53     0  01:43    0.000823        8.02       0.170
  WS02004406           JUNCTION      0.00  1331.81     0  01:43           0        8.01       0.276
  WS02004407           JUNCTION      0.00  1332.00     0  01:43           0        7.99       0.027
  WS02004409           JUNCTION      0.00  1347.02     0  01:41           0        7.99       0.052
  WS02004410           JUNCTION      0.00  1322.72     0  01:41           0        7.98       0.073
  WS02004411           JUNCTION      0.00  1309.20     0  01:45           0        7.98       0.088
  WS02004412           JUNCTION      0.00  1308.91     0  01:45           0        7.97       0.114
  WS02004413           JUNCTION      0.00  1308.94     0  01:44           0        7.96       0.188
  WS02006109           JUNCTION      1.23  1290.75     0  01:45      0.0266        7.92       0.050
  WS02006110           JUNCTION      0.00  1207.62     0  01:40           0        7.72       0.122
  WS02006111           JUNCTION      0.00  1212.92     0  01:40           0        7.71      -0.005
  WS02006112           JUNCTION    286.51  1331.77     0  01:43       0.385        8.09       0.226
  WS02006113           JUNCTION      0.00  1206.93     0  01:40           0        7.71       0.041
  WS02006115           JUNCTION      0.00  1331.80     0  01:43           0        8.07       0.092
  WS02006116           JUNCTION      0.00  1331.68     0  01:43           0        8.07       0.039
  WS02006228           JUNCTION      0.00  1289.79     0  01:45           0         7.9       0.028
  WS02006229           JUNCTION      0.00  2307.71     0  01:45           0         9.8       0.074
  WS02006230           JUNCTION     10.28  1027.77     0  01:45       0.222         4.8       0.150
  WS02006231           JUNCTION      0.00   453.27     0  02:00           0         3.8      -0.087
  WS02006232           JUNCTION      0.00   453.48     0  02:04           0        3.78       0.261
  WS02006234           JUNCTION      0.00   453.12     0  01:59           0        3.76      -0.083
  WS02006235           JUNCTION      0.00   493.12     0  01:38           0        3.75       0.126
  WS02006238           JUNCTION      0.00   495.42     0  01:38           0        3.43      -0.240
  WS02006239           JUNCTION      0.00   500.30     0  01:38           0        3.41      -0.299
  WS02006240           JUNCTION      0.00   498.28     0  01:39           0        3.39       0.021
  WS02006242           JUNCTION      0.00   648.82     0  01:39           0        3.38       0.079
  WS02006243           JUNCTION      0.00   664.41     0  01:39           0        3.08      -0.232
  WS02006245           JUNCTION      0.00   497.83     0  01:39           0        3.08       0.537
  WS02006247           JUNCTION      0.00   650.85     0  01:39           0        3.08      -0.009
  WS02006248           JUNCTION      0.00   702.90     0  01:40           0        3.21      -0.048
  WS02006249           JUNCTION      0.00  1422.00     0  01:44           0        5.62       0.217
  WS02006251           JUNCTION      0.08  1629.28     0  01:44     0.00166         5.7      -0.019
  WS02006252           JUNCTION      0.00   668.65     0  01:44           0        3.25      -0.113
  WS02006253           JUNCTION     35.44  1627.98     0  01:44      0.0393        2.85       0.013
  WS02006256           JUNCTION      0.00   300.00     0  00:50           0        1.01      -0.021
  WS02006280           JUNCTION      0.00  2307.17     0  01:45           0        6.93      -0.022
  WS02006284           JUNCTION      0.10  2306.81     0  01:44     0.00207        6.93       0.020
  WS02006287           JUNCTION      0.00  2307.39     0  01:44           0        6.93       0.028
  WSF200               JUNCTION      0.00  1330.09     0  01:45           0        7.94       0.013
  YS02001580           JUNCTION      0.00   252.82     0  01:41           0     0.00476      -5.097
  YS02001583           JUNCTION      0.00   258.34     0  01:41           0       0.015     -11.957
  YS02001586           JUNCTION    578.55   578.55     0  01:50        1.29         1.3       0.121
  YS02001590           JUNCTION      0.00   318.09     0  01:57           0        1.08      -0.054
  YS02001593           JUNCTION      0.00   318.11     0  01:57           0        1.08       0.011
  YS02001596           JUNCTION      0.00   317.97     0  01:53           0        1.08       0.005
  YS02001600           JUNCTION      0.00   318.12     0  01:57           0        1.08       0.001
  YS02001601           JUNCTION   1102.89  1420.33     0  01:45        1.81        2.89       0.023
  YS02001602           JUNCTION      0.00   590.82     0  01:41           0        1.88       0.031
  YS02001605           JUNCTION      0.00   591.10     0  01:41           0         1.8       0.044
  YS02001607           JUNCTION      0.00   590.83     0  01:41           0         1.8       0.107
  YS02001610           JUNCTION      0.00   561.57     0  01:41           0        1.87       0.134
  YS02001613           JUNCTION      0.00   534.50     0  01:41           0        1.52       0.120
  YS02001616           JUNCTION      0.00   509.95     0  02:12           0        1.52       0.005
  YS02001619           JUNCTION   1015.21  1015.21     0  01:50        2.05         3.5      -0.004
  YS02001622           JUNCTION      0.00   937.14     0  02:04           0        3.43       0.007
  YS02001625           JUNCTION      0.00  1132.73     0  01:49           0        3.51       0.285
  YS02001629           JUNCTION      0.00   938.15     0  02:04           0        2.96       0.019
  YS02001633           JUNCTION    816.29  1344.98     0  01:42        1.31        4.16       0.093
  YS02001641           JUNCTION      0.00  1335.54     0  01:42           0        4.07       0.075
  YS02001644           JUNCTION    744.82  1901.75     0  01:43        1.13         5.2       0.070
  YS02001647           JUNCTION      0.00  1904.45     0  01:42           0        5.04       0.007
  YS02001649           JUNCTION      0.00  2193.59     0  01:43           0        6.07       0.007
  YS02001652           JUNCTION      0.00   963.15     0  01:45           0        1.03      -0.177
  YS02001655           JUNCTION      0.15   961.93     0  01:45     0.00332        1.03       0.048
  YS02001658           JUNCTION      0.00   960.49     0  01:45           0        1.03      -0.063
  YS02001661           JUNCTION      0.00   953.99     0  01:45           0        1.03       0.021
  YS02001664           JUNCTION    751.01   751.01     0  01:45        1.03        1.03      -0.019
  YS02001745           JUNCTION    506.93   743.98     0  01:44       0.628        0.63       0.115
  YS02001748           JUNCTION      0.04   883.96     0  01:44    0.000972       0.636      -0.439
  YS02001751           JUNCTION      0.01   613.55     0  01:44    0.000238       0.643       0.149
  YS02001754           JUNCTION      0.26   614.48     0  01:44     0.00562       0.664      -0.347
  YS02001757           JUNCTION      0.00  3343.67     0  01:44           0        8.86       0.048
  YS02001759           JUNCTION    697.52  1447.51     0  01:44       0.866        2.13      -0.011
  YS02001762           JUNCTION      0.00   802.16     0  01:49           0        1.27      -0.000
  YS02001765           JUNCTION      0.00   801.68     0  01:49           0        1.27       0.014
  YS02001767           JUNCTION      0.54   801.49     0  01:49      0.0116        1.27      -0.030
  YS02001770           JUNCTION    960.58   960.58     0  01:45        1.33        1.37      -0.049
  YS02001774           JUNCTION      0.00   682.41     0  01:43           0       0.133       0.815
  YS02001779           JUNCTION      0.01   688.79     0  01:43    0.000108       0.089      -0.987
  YS02001783           JUNCTION      0.00  1164.04     0  01:44           0        3.19       0.004
  YS02001784           JUNCTION      1.06  1165.15     0  01:43      0.0229        3.21       0.019
  YS02001786           JUNCTION      0.06  1164.88     0  01:43     0.00122        3.21       0.018
  YS02001788           JUNCTION      0.07  1164.88     0  01:43     0.00153        3.21       0.005
  YS02001790           JUNCTION      0.15  1198.75     0  01:43     0.00335        3.22       0.005
  YS02001791           JUNCTION      0.00  1286.48     0  01:46           0        3.22      -0.008
  YS02001793           JUNCTION      0.00  1250.76     0  02:10           0        3.22      -0.021
  YS02001882           JUNCTION      0.00   140.88     0  01:42           0      0.0128       4.656
  YS02001884           JUNCTION      0.00   169.47     0  01:42           0      0.0483       5.547
  YS02001887           JUNCTION    777.91   777.94     0  01:45       0.909       0.942       0.471
  YS02001890           JUNCTION      0.00   777.57     0  01:45           0       0.901       0.565
  YS02001895           JUNCTION      0.00   651.55     0  01:42           0       0.845       0.172
  YS02001898           JUNCTION      0.00   650.86     0  01:42           0       0.844      -0.032
  YS02001901           JUNCTION      0.00   649.74     0  01:42           0       0.847       0.397
  YS02001904           JUNCTION      0.00   649.30     0  01:42           0       0.858       0.307
  YS02001907           JUNCTION      0.00  1765.40     0  01:44           0        2.84       0.607
  YS02001910           JUNCTION      0.00  1219.90     0  01:44           0        1.99       0.361
  YS02001915           JUNCTION    801.77  1219.66     0  01:44        1.26        2.04       0.071
  YS02001918           JUNCTION      0.00   898.10     0  01:42           0       0.819      -0.032
  YS02001920           JUNCTION      2.87   833.34     0  01:43       0.062       0.788       0.066
  YS02001923           JUNCTION      0.04  1105.78     0  01:43    0.000814       0.706      -0.183
  YS02001926           JUNCTION      0.05  1411.48     0  01:43     0.00113       0.686      -0.071
  YS02001929           JUNCTION    366.58   992.61     0  01:43       0.662       0.668      -0.234
  YS02006553           JUNCTION      0.00   726.16     0  02:08           0        1.92       0.616
  YS02006556           JUNCTION      0.00   726.35     0  02:08           0        1.93       0.400
  YS02006558           JUNCTION    992.24  1182.34     0  01:42        1.33        3.23       0.111
  YS02006561           JUNCTION      0.00  1188.32     0  01:42           0        3.19      -0.002
  YS02163301           JUNCTION      0.00   940.17     0  02:04           0        2.95       0.059
  YS02163601           JUNCTION      0.11  1343.71     0  01:42     0.00238        4.06       0.130
  YS02164001           JUNCTION      0.00  1341.58     0  01:42           0        4.06       0.059
  YSB1154              JUNCTION    396.15   396.15     0  01:45       0.548       0.549       0.263
  YSB1171              JUNCTION      0.00   863.55     0  01:45           0        1.02       0.596
  YSB1174              JUNCTION    363.84   363.84     0  01:45       0.417       0.418       0.284
  YSB6556              JUNCTION      0.00   396.12     0  01:45           0        0.55       0.194
  CC-1                 OUTFALL       0.00   683.00     0  00:10           0        5.82       0.000
  CC-2                 OUTFALL       0.00   683.00     0  00:40           0        2.29       0.000
  JK-1                 OUTFALL       0.00  1000.00     0  00:00           0         2.3       0.000
  JK-2                 OUTFALL       0.00  1000.00     0  01:43           0        1.45       0.000
  WSC                  OUTFALL       0.00  1529.67     0  01:51           0        12.2       0.000
  CC-storage           STORAGE       0.00  3319.56     0  01:50           0        11.1      -2.016
  JK-storage           STORAGE       0.00  1492.93     0  02:11           0        3.37     -30.962
  XR-storage           STORAGE     200.00   200.00     0  00:00        4.32        4.92       0.001
  
  
  **********************
  Node Surcharge Summary
  **********************
  
  Surcharging occurs when water rises above the top of the highest conduit.
  ---------------------------------------------------------------------
                                               Max. Height   Min. Depth
                                   Hours       Above Crown    Below Rim
  Node                 Type      Surcharged         Meters       Meters
  ---------------------------------------------------------------------
  HS02004478           JUNCTION        0.40          0.672        0.268
  HS02004479           JUNCTION        0.51          1.000        0.050
  HS02004480           JUNCTION        0.54          1.062        0.038
  HS02004770           JUNCTION        0.47          0.720        0.000
  HS02004777           JUNCTION        0.47          0.780        0.000
  HS02004785           JUNCTION        0.43          0.790        0.000
  HS02004788           JUNCTION        0.41          0.720        0.000
  HS02004792           JUNCTION        0.51          0.900        0.000
  HS02004799           JUNCTION        0.61          1.060        0.000
  HS02004802           JUNCTION        0.54          1.098        0.112
  HS02004807           JUNCTION        0.53          1.220        0.000
  HS02004817           JUNCTION        0.94          1.740        0.000
  HS02004824           JUNCTION        0.42          1.310        0.000
  HS02004830           JUNCTION        0.39          1.330        0.000
  HS02004837           JUNCTION        0.36          1.298        0.042
  HS02004842           JUNCTION        0.47          1.520        0.000
  HS02004848           JUNCTION        0.34          1.304        0.066
  HS02004852           JUNCTION        0.35          1.351        0.069
  HS02004856           JUNCTION        0.34          1.300        0.000
  HS02004862           JUNCTION        0.37          1.300        0.000
  HS02004870           JUNCTION        0.38          1.400        0.000
  HS02004876           JUNCTION        0.43          1.472        0.088
  HS02004881           JUNCTION        0.41          1.450        0.000
  HS02004901           JUNCTION        0.48          0.720        0.000
  WS02004401           JUNCTION        1.36          1.571        0.089
  WS02004402           JUNCTION        1.37          1.509        0.231
  WS02004403           JUNCTION        1.37          1.381        0.649
  WS02004404           JUNCTION        1.42          1.360        1.420
  WS02004405           JUNCTION        1.41          1.334        1.466
  WS02004406           JUNCTION        1.40          2.087        0.363
  WS02004409           JUNCTION        0.74          0.419        1.941
  WS02004410           JUNCTION        0.70          0.484        2.056
  WS02004411           JUNCTION        0.64          0.517        2.013
  WS02004412           JUNCTION        0.58          0.393        1.917
  WS02004413           JUNCTION        1.02          1.161        1.039
  WS02006109           JUNCTION        1.93          1.820        0.000
  WS02006110           JUNCTION        1.65          1.850        0.000
  WS02006111           JUNCTION        0.88          1.870        0.000
  WS02006112           JUNCTION        1.74          1.680        0.000
  WS02006113           JUNCTION        0.92          1.930        0.000
  WS02006115           JUNCTION        1.34          1.483        0.767
  WS02006116           JUNCTION        1.35          1.534        0.756
  WS02006228           JUNCTION        1.91          2.200        0.000
  WS02006229           JUNCTION        0.71          1.070        0.000
  WS02006230           JUNCTION        1.43          1.570        0.000
  WS02006231           JUNCTION        1.62          1.489        0.041
  WS02006232           JUNCTION        1.82          1.480        0.000
  WS02006234           JUNCTION        1.66          1.240        0.000
  WS02006235           JUNCTION        1.68          1.234        0.056
  WS02006238           JUNCTION        1.72          1.234        0.196
  WS02006239           JUNCTION        1.66          1.290        0.000
  WS02006240           JUNCTION        1.65          1.347        0.043
  WS02006242           JUNCTION        1.75          0.820        0.000
  WS02006243           JUNCTION        1.63          0.770        0.000
  WS02006245           JUNCTION        1.62          0.850        0.000
  WS02006247           JUNCTION        1.64          0.760        0.000
  WS02006248           JUNCTION        1.59          0.380        0.000
  WS02006249           JUNCTION        1.61          0.390        0.000
  WS02006251           JUNCTION        1.52          1.180        0.000
  WS02006252           JUNCTION        2.08          1.100        0.000
  WS02006253           JUNCTION        1.52          2.480        0.000
  WS02006256           JUNCTION        5.85          2.050        0.000
  WS02006280           JUNCTION        0.60          0.780        0.000
  WS02006284           JUNCTION        0.55          0.800        0.000
  WS02006287           JUNCTION        0.48          0.748        0.142
  YS02001580           JUNCTION        0.48          0.450        0.000
  YS02001583           JUNCTION        0.49          0.500        0.000
  YS02001586           JUNCTION        0.58          0.510        0.000
  YS02001590           JUNCTION        0.64          0.750        0.000
  YS02001593           JUNCTION        0.64          0.840        0.000
  YS02001596           JUNCTION        0.72          1.070        0.000
  YS02001600           JUNCTION        0.84          1.190        0.000
  YS02001601           JUNCTION        1.13          1.440        0.000
  YS02001602           JUNCTION        1.03          1.270        0.000
  YS02001605           JUNCTION        0.99          1.180        0.000
  YS02001607           JUNCTION        0.57          0.680        0.000
  YS02001610           JUNCTION        0.60          0.680        0.000
  YS02001613           JUNCTION        0.57          0.700        0.000
  YS02001616           JUNCTION        0.53          0.610        0.000
  YS02001619           JUNCTION        0.52          0.610        0.000
  YS02001622           JUNCTION        0.51          0.620        0.000
  YS02001625           JUNCTION        0.68          0.780        0.000
  YS02001629           JUNCTION        0.42          0.470        0.000
  YS02001633           JUNCTION        0.69          1.044        0.016
  YS02001641           JUNCTION        0.59          0.990        0.110
  YS02001644           JUNCTION        0.55          0.920        0.000
  YS02001647           JUNCTION        0.34          0.865        0.035
  YS02001649           JUNCTION        0.39          1.050        0.000
  YS02001652           JUNCTION        0.26          1.130        0.000
  YS02001655           JUNCTION        0.19          1.200        0.000
  YS02001658           JUNCTION        0.12          1.300        0.000
  YS02001661           JUNCTION        0.01          1.209        0.181
  YS02001745           JUNCTION        0.01          1.350        0.000
  YS02001748           JUNCTION        0.04          1.190        0.000
  YS02001751           JUNCTION        0.13          1.200        0.000
  YS02001754           JUNCTION        0.19          1.150        0.000
  YS02001757           JUNCTION        0.38          1.210        0.000
  YS02001759           JUNCTION        0.31          1.206        0.004
  YS02001762           JUNCTION        0.30          1.150        0.000
  YS02001765           JUNCTION        0.28          1.100        0.000
  YS02001767           JUNCTION        0.26          1.030        0.000
  YS02001770           JUNCTION        0.25          0.920        0.000
  YS02001774           JUNCTION        0.30          1.004        0.046
  YS02001779           JUNCTION        0.21          0.680        0.000
  YS02001783           JUNCTION        0.49          0.911        0.689
  YS02001784           JUNCTION        0.48          0.911        0.579
  YS02001786           JUNCTION        0.44          0.801        0.629
  YS02001788           JUNCTION        0.17          1.480        0.000
  YS02001790           JUNCTION        0.22          0.840        0.317
  YS02001791           JUNCTION        0.22          0.737        1.183
  YS02001793           JUNCTION        0.24          0.804        1.796
  YS02001882           JUNCTION        0.45          0.830        0.000
  YS02001884           JUNCTION        0.46          0.870        0.000
  YS02001887           JUNCTION        0.48          0.950        0.000
  YS02001890           JUNCTION        0.49          0.760        0.000
  YS02001895           JUNCTION        0.44          0.750        0.000
  YS02001898           JUNCTION        0.43          0.740        0.000
  YS02001901           JUNCTION        0.47          0.845        0.025
  YS02001904           JUNCTION        0.46          0.674        0.176
  YS02001907           JUNCTION        0.61          0.950        0.000
  YS02001910           JUNCTION        0.50          1.100        0.000
  YS02001915           JUNCTION        0.45          1.000        0.000
  YS02001918           JUNCTION        0.38          0.810        0.000
  YS02001920           JUNCTION        0.39          1.140        0.000
  YS02001923           JUNCTION        0.02          0.820        0.000
  YS02001926           JUNCTION        0.03          0.900        0.000
  YS02001929           JUNCTION        0.01          0.780        0.000
  YS02006553           JUNCTION        0.62          1.020        0.170
  YS02006556           JUNCTION        0.56          1.023        0.327
  YS02006558           JUNCTION        0.55          1.031        0.369
  YS02006561           JUNCTION        0.39          0.486        0.664
  YS02163301           JUNCTION        0.67          0.945        0.085
  YS02163601           JUNCTION        0.71          1.080        0.000
  YS02164001           JUNCTION        0.61          1.012        0.088
  YSB1154              JUNCTION        0.69          1.331        0.069
  YSB1171              JUNCTION        0.69          1.100        0.000
  YSB1174              JUNCTION        0.63          1.214        0.036
  YSB6556              JUNCTION        0.59          1.100        0.000
  
  
  *********************
  Node Flooding Summary
  *********************
  
  Flooding refers to all water that overflows a node, whether it ponds or not.
  --------------------------------------------------------------------------
                                                             Total   Maximum
                                 Maximum   Time of Max       Flood    Ponded
                        Hours       Rate    Occurrence      Volume     Depth
  Node                 Flooded       LPS   days hr:min    10^6 ltr    Meters
  --------------------------------------------------------------------------
  HS02004770              0.29   1009.26      0  01:45       0.524     0.000
  HS02004777              0.01     82.17      0  01:41       0.002     0.000
  HS02004785              0.01    328.17      0  01:41       0.002     0.000
  HS02004788              0.01    592.38      0  01:41       0.010     0.000
  HS02004792              0.31   1332.04      0  01:45       0.831     0.000
  HS02004799              0.14    282.94      0  01:44       0.062     0.000
  HS02004807              0.01     18.74      0  01:42       0.000     0.000
  HS02004824              0.01    149.61      0  01:41       0.001     0.000
  HS02004830              0.01    138.47      0  01:42       0.000     0.000
  HS02004842              0.01     54.82      0  01:43       0.000     0.000
  HS02004856              0.01      2.74      0  01:43       0.000     0.000
  HS02004862              0.01    377.49      0  01:43       0.008     0.000
  HS02004870              0.01    946.28      0  01:43       0.005     0.000
  HS02004881              0.01    130.40      0  01:43       0.000     0.000
  HS02004901              0.36    533.88      0  01:50       0.508     0.000
  WS02006109              0.35    282.07      0  01:45       0.196     0.000
  WS02006110              0.01     27.86      0  01:40       0.000     0.000
  WS02006111              0.01    190.35      0  01:40       0.000     0.000
  WS02006112              0.01    204.41      0  01:40       0.001     0.000
  WS02006113              0.01    165.56      0  01:40       0.000     0.000
  WS02006228              0.01     58.78      0  01:40       0.000     0.000
  WS02006229              0.01     89.53      0  01:40       0.000     0.000
  WS02006230              0.56    575.02      0  01:44       0.785     0.000
  WS02006232              0.13      2.80      0  01:40       0.000     0.000
  WS02006234              0.58    128.30      0  01:44       0.194     0.000
  WS02006239              0.01    150.18      0  01:39       0.000     0.000
  WS02006242              0.67    628.20      0  01:39       0.289     0.000
  WS02006243              0.01    557.45      0  01:39       0.002     0.000
  WS02006245              0.01    421.74      0  01:39       0.001     0.000
  WS02006247              0.01    596.55      0  01:40       0.002     0.000
  WS02006248              0.86    647.72      0  01:40       0.866     0.000
  WS02006249              1.46   1421.92      0  01:44       3.165     0.000
  WS02006251              0.01     40.22      0  01:43       0.000     0.000
  WS02006252              0.28    667.93      0  01:44       0.397     0.000
  WS02006253              0.01    502.26      0  01:40       0.001     0.000
  WS02006256              0.87    283.75      0  04:00       0.514     0.000
  WS02006280              0.01    299.05      0  01:40       0.000     0.000
  WS02006284              0.01    313.19      0  01:40       0.000     0.000
  YS02001580              0.01    244.97      0  01:41       0.001     0.000
  YS02001583              0.01    219.50      0  01:41       0.001     0.000
  YS02001586              0.39    260.91      0  01:50       0.207     0.000
  YS02001590              0.01    148.00      0  01:40       0.000     0.000
  YS02001593              0.01     27.39      0  01:40       0.000     0.000
  YS02001596              0.01      4.10      0  01:40       0.000     0.000
  YS02001600              0.01     11.32      0  01:41       0.000     0.000
  YS02001601              0.51   1022.42      0  01:45       1.008     0.000
  YS02001602              0.37     61.99      0  01:59       0.076     0.000
  YS02001605              0.01     11.55      0  01:42       0.000     0.000
  YS02001607              0.01    306.27      0  01:42       0.002     0.000
  YS02001610              0.33    503.79      0  01:50       0.411     0.000
  YS02001613              0.01    230.48      0  01:42       0.001     0.000
  YS02001616              0.01    125.89      0  01:42       0.001     0.000
  YS02001619              0.01    112.98      0  01:42       0.000     0.000
  YS02001622              0.01    147.99      0  01:42       0.000     0.000
  YS02001625              0.28   1132.66      0  01:49       0.633     0.000
  YS02001629              0.07    220.88      0  01:45       0.033     0.000
  YS02001644              0.11    842.65      0  01:45       0.142     0.000
  YS02001649              0.01    165.85      0  01:44       0.001     0.000
  YS02001652              0.01     12.31      0  01:44       0.000     0.000
  YS02001655              0.01    538.17      0  01:43       0.001     0.000
  YS02001658              0.01    294.89      0  01:44       0.000     0.000
  YS02001745              0.01    263.49      0  01:44       0.000     0.000
  YS02001748              0.01    526.46      0  01:44       0.002     0.000
  YS02001751              0.01    271.12      0  01:44       0.000     0.000
  YS02001754              0.01    218.00      0  01:43       0.000     0.000
  YS02001757              0.01    110.20      0  01:44       0.001     0.000
  YS02001762              0.01     16.39      0  01:44       0.000     0.000
  YS02001765              0.01     14.41      0  01:44       0.000     0.000
  YS02001767              0.01    210.45      0  01:43       0.000     0.000
  YS02001770              0.01    309.53      0  01:43       0.001     0.000
  YS02001779              0.10    658.56      0  01:43       0.070     0.000
  YS02001788              0.01    200.82      0  01:57       0.000     0.000
  YS02001882              0.01      2.29      0  01:42       0.000     0.000
  YS02001884              0.01      6.29      0  01:42       0.000     0.000
  YS02001887              0.01     24.44      0  01:42       0.000     0.000
  YS02001890              0.13    238.56      0  01:45       0.051     0.000
  YS02001895              0.01     95.62      0  01:42       0.000     0.000
  YS02001898              0.01    292.81      0  01:42       0.001     0.000
  YS02001907              0.32   1575.11      0  01:44       0.900     0.000
  YS02001910              0.01     70.18      0  01:42       0.000     0.000
  YS02001915              0.01    220.83      0  01:42       0.000     0.000
  YS02001918              0.01    401.37      0  01:42       0.004     0.000
  YS02001920              0.01     74.42      0  01:43       0.000     0.000
  YS02001923              0.01    255.26      0  01:43       0.001     0.000
  YS02001926              0.01    573.40      0  01:43       0.005     0.000
  YS02001929              0.01    914.67      0  01:43       0.003     0.000
  YS02163601              0.01      6.84      0  01:43       0.000     0.000
  YSB1171                 0.23    863.52      0  01:45       0.406     0.000
  YSB6556                 0.01     19.88      0  01:41       0.000     0.000
  JK-storage              0.05    745.62      0  01:57       0.114     0.000
  
  
  **********************
  Storage Volume Summary
  **********************
  
  --------------------------------------------------------------------------------------------------
                         Average     Avg  Evap Exfil       Maximum     Max    Time of Max    Maximum
                          Volume    Pcnt  Pcnt  Pcnt        Volume    Pcnt     Occurrence    Outflow
  Storage Unit           1000 m3    Full  Loss  Loss       1000 m3    Full    days hr:min        LPS
  --------------------------------------------------------------------------------------------------
  CC-storage               1.293      20     0     0         4.284      67       0  02:30    1766.00
  JK-storage               0.022       8     0     0         0.291     100       0  01:57    2300.00
  XR-storage               0.924      64     0     0         1.039      72       0  06:00     190.00
  
  
  ***********************
  Outfall Loading Summary
  ***********************
  
  -----------------------------------------------------------
                         Flow       Avg       Max       Total
                         Freq      Flow      Flow      Volume
  Outfall Node           Pcnt       LPS       LPS    10^6 ltr
  -----------------------------------------------------------
  CC-1                  65.64    441.25    683.00       5.816
  CC-2                  30.55    312.20    683.00       2.292
  JK-1                  62.87    204.25   1000.00       2.303
  JK-2                  34.43    231.10   1000.00       1.446
  WSC                   99.96    568.07   1529.67      12.183
  -----------------------------------------------------------
  System                58.69   1756.87   4782.80      24.040
  
  
  ********************
  Link Flow Summary
  ********************
  
  -----------------------------------------------------------------------------
                                 Maximum  Time of Max   Maximum    Max/    Max/
                                  |Flow|   Occurrence   |Veloc|    Full    Full
  Link                 Type          LPS  days hr:min     m/sec    Flow   Depth
  -----------------------------------------------------------------------------
  1                    CONDUIT   1529.67     0  01:51      3.71    0.53    0.52
  HS02004478WS02006287 CONDUIT   2307.39     0  01:44      2.84    0.65    1.00
  HS02004479HS02004480 CONDUIT    586.34     0  01:42      0.84    0.57    1.00
  HS02004480HS02004478 CONDUIT   2224.55     0  01:42      3.18    9.37    1.00
  HS02004770HS02004777 CONDUIT    995.42     0  01:41      1.42    1.82    1.00
  HS02004777HS02004785 CONDUIT    995.50     0  01:41      1.55    1.22    1.00
  HS02004785HS02004788 CONDUIT    685.25     0  01:41      1.35    5.17    1.00
  HS02004788HS02004792 CONDUIT    817.33     0  02:02      1.43    0.54    1.00
  HS02004792HS02004799 CONDUIT   1493.35     0  02:02      2.13    0.91    1.00
  HS02004799HS02004480 CONDUIT   1682.55     0  01:42      2.40    2.13    1.00
  HS02004802HS02004478 CONDUIT   1181.48     0  01:45      1.69    1.04    1.00
  HS02004807HS02004802 CONDUIT   1181.60     0  01:45      1.69    2.26    1.00
  HS02004817HS02004807 CONDUIT    741.74     0  01:45      1.06    0.44    1.00
  HS02004817HS02004824 CONDUIT    741.30     0  01:45      1.06    0.33    1.00
  HS02004824HS02004830 CONDUIT    840.66     0  01:42      1.22    1.10    1.00
  HS02004830HS02004837 CONDUIT    873.56     0  01:42      1.40    0.87    1.00
  HS02004837HS02004842 CONDUIT   1054.99     0  01:42      1.51    0.63    1.00
  HS02004842HS02004848 CONDUIT   1053.43     0  01:42      1.74    0.61    1.00
  HS02004848HS02004852 CONDUIT   1377.24     0  01:42      2.05    1.55    1.00
  HS02004852HS02004856 CONDUIT   1270.95     0  01:42      1.85    1.45    1.00
  HS02004856HS02004862 CONDUIT   1429.76     0  01:43      2.11    1.43    1.00
  HS02004862HS02004870 CONDUIT   1520.07     0  01:43      2.31    1.64    1.00
  HS02004870HS02004876 CONDUIT   1261.65     0  01:44      1.80    0.84    1.00
  HS02004876HS02004881 CONDUIT   1467.91     0  01:44      2.53   15.61    1.00
  HS02004881HS02006253 CONDUIT   1593.74     0  01:44      2.81    0.31    1.00
  HS02004901HS02004770 CONDUIT    265.75     0  01:58      0.38    1.00    1.00
  WS02001211WS02001212 CONDUIT    313.20     0  01:49      0.54    0.24    0.73
  WS02001212WS02001213 CONDUIT    358.11     0  01:49      1.04    0.55    0.63
  WS02001213WS02003059 CONDUIT    297.20     0  01:48      0.47    0.49    0.93
  WS02003059WS02003060 CONDUIT    395.77     0  01:43      0.69    0.26    0.83
  WS02003060WS02003069 CONDUIT   1532.80     0  01:49      2.25    0.60    0.61
  WS02003066WSF200     CONDUIT   1330.09     0  01:45      3.63    0.22    0.41
  WS02003067WS02003066 CONDUIT   1336.42     0  01:44      2.08    0.43    0.59
  WS02003069WS02003072 CONDUIT   1522.62     0  01:49      1.91    0.73    0.67
  WS02003072WS02003073 CONDUIT   1526.59     0  01:50      2.06    3.30    0.62
  WS02004138WS02004139 CONDUIT    191.06     0  00:29      2.16    0.04    0.44
  WS02004139WS02001211 CONDUIT    348.44     0  01:46      0.55    0.44    0.63
  WS02004401WS02004402 CONDUIT   1331.54     0  01:42      1.70    1.60    1.00
  WS02004402WS02004403 CONDUIT   1331.37     0  01:42      1.70    1.91    1.00
  WS02004403WS02004404 CONDUIT   1331.06     0  01:42      1.69    0.96    1.00
  WS02004404WS02004405 CONDUIT   1331.49     0  01:43      1.70   13.05    1.00
  WS02004405WS02004406 CONDUIT   1331.81     0  01:43      1.70    2.63    1.00
  WS02004406WS02004407 CONDUIT   1332.00     0  01:43      2.09    0.60    0.98
  WS02004407WS02004409 CONDUIT   1347.02     0  01:41      2.25    0.48    0.98
  WS02004409WS02004410 CONDUIT   1322.72     0  01:41      1.76    1.71    1.00
  WS02004410WS02004411 CONDUIT   1309.20     0  01:45      1.73    1.79    1.00
  WS02004411WS02004412 CONDUIT   1308.91     0  01:45      1.67    1.86    1.00
  WS02004412WS02004413 CONDUIT   1308.94     0  01:44      1.67    0.88    1.00
  WS02004413WS02003067 CONDUIT   1309.28     0  01:44      2.02    0.56    0.77
  WS02006109WS02006110 CONDUIT   1207.62     0  01:40      2.40    2.32    1.00
  WS02006110WS02006113 CONDUIT   1206.93     0  01:40      2.40    1.10    1.00
  WS02006111WS02006112 CONDUIT   1122.74     0  02:02      2.23    0.53    1.00
  WS02006112WS02006115 CONDUIT   1331.80     0  01:43      1.70    0.79    1.00
  WS02006113WS02006111 CONDUIT   1212.92     0  01:40      2.69    1.45    1.00
  WS02006115WS02006116 CONDUIT   1331.68     0  01:43      1.70    1.71    1.00
  WS02006116WS02004401 CONDUIT   1331.64     0  01:42      1.70    1.84    1.00
  WS02006228WS02006109 CONDUIT   1289.52     0  01:45      2.57    5.63    1.00
  WS02006229WS02006228 CONDUIT   1289.79     0  01:45      2.57    4.27    1.00
  WS02006230WS02006229 CONDUIT   1017.49     0  01:45      2.64   22.64    1.00
  WS02006231WS02006230 CONDUIT    453.27     0  02:00      1.36    6.88    1.00
  WS02006232WS02006231 CONDUIT    453.48     0  02:04      1.18    0.95    1.00
  WS02006234WS02006232 CONDUIT    453.12     0  01:59      1.20    0.92    1.00
  WS02006235WS02006234 CONDUIT    438.75     0  03:20      1.25    4.63    1.00
  WS02006238WS02006235 CONDUIT    495.42     0  01:38      1.33    1.11    1.00
  WS02006239WS02006238 CONDUIT    500.30     0  01:38      1.33    1.60    1.00
  WS02006240WS02006239 CONDUIT    498.28     0  01:39      1.32    1.57    1.00
  WS02006242WS02006240 CONDUIT    479.00     0  01:39      1.25    1.90    1.00
  WS02006243WS02006242 CONDUIT    470.97     0  01:39      1.39    1.01    1.00
  WS02006245WS02006243 CONDUIT    419.37     0  01:39      1.39    1.24    1.00
  WS02006247WS02006245 CONDUIT    418.65     0  03:26      1.38    3.32    1.00
  WS02006248WS02006247 CONDUIT    418.60     0  03:26      1.41    0.91    1.00
  WS02006249WS02006248 CONDUIT    436.29     0  03:13      1.42    2.39    1.00
  WS02006251WS02006249 CONDUIT   1361.41     0  01:44      3.54    3.93    1.00
  WS02006252WS02006251 CONDUIT    411.92     0  02:20     22.64    1.51    1.00
  WS02006253WS02006251 CONDUIT   1629.21     0  01:44      4.23    4.89    1.00
  WS02006256WS02006235 CONDUIT    247.09     0  04:00      3.50    2.62    1.00
  WS02006280WS02006229 CONDUIT   2307.71     0  01:45      4.91    0.49    1.00
  WS02006284WS02006280 CONDUIT   2307.17     0  01:45      3.18    0.97    1.00
  WS02006287WS02006284 CONDUIT   2306.71     0  01:44      2.96    1.07    1.00
  WSF200WS02003060     CONDUIT   1513.99     0  01:43      3.10    0.34    0.51
  YS02001580YS02001583 CONDUIT    252.82     0  01:41      1.05    0.98    1.00
  YS02001583YS02001586 CONDUIT    257.69     0  01:41      1.16    0.39    1.00
  YS02001586YS02001590 CONDUIT    318.09     0  01:57      1.28    0.56    1.00
  YS02001590YS02001593 CONDUIT    318.11     0  01:57      1.13    2.00    1.00
  YS02001593YS02001596 CONDUIT    317.97     0  01:53      1.75    0.50    1.00
  YS02001596YS02001600 CONDUIT    318.12     0  01:57      1.22    0.62    1.00
  YS02001600YS02001601 CONDUIT    317.97     0  01:57      1.12    0.55    1.00
  YS02001601YS02001602 CONDUIT    590.82     0  01:41      2.09    2.13    1.00
  YS02001602YS02001605 CONDUIT    591.10     0  01:41      2.09   12.51    1.00
  YS02001605YS02001607 CONDUIT    590.83     0  01:41      2.09    3.24    1.00
  YS02001607YS02001610 CONDUIT    561.57     0  01:41      0.77    0.53    1.00
  YS02001610YS02001613 CONDUIT    534.50     0  01:41      0.71    0.62    1.00
  YS02001613YS02001616 CONDUIT    509.95     0  02:12      0.71    0.44    1.00
  YS02001616YS02001619 CONDUIT    510.48     0  02:12      0.73    0.89    1.00
  YS02001619YS02001622 CONDUIT    937.14     0  02:04      1.39    1.38    1.00
  YS02001622YS02001625 CONDUIT    937.51     0  02:04      1.19    0.50    1.00
  YS02001625YS02001629 CONDUIT    938.15     0  02:04      1.19    0.45    1.00
  YS02001629YS02163301 CONDUIT    940.17     0  02:04      1.20    1.16    1.00
  YS02001633YS02163601 CONDUIT   1343.60     0  01:42      1.71    1.41    1.00
  YS02001641YS02001644 CONDUIT   1340.86     0  01:42      1.71    4.33    1.00
  YS02001644YS02001647 CONDUIT   1904.45     0  01:42      2.42    1.12    1.00
  YS02001647YS02001649 CONDUIT   1925.27     0  01:42      2.45    1.02    1.00
  YS02001649YS02001757 CONDUIT   2193.86     0  01:43      2.79    1.33    1.00
  YS02001652YS02001649 CONDUIT    964.03     0  01:45      1.23    0.48    1.00
  YS02001655YS02001652 CONDUIT    963.15     0  01:45      1.71    0.47    1.00
  YS02001658YS02001655 CONDUIT    961.78     0  01:45      2.14    0.41    1.00
  YS02001661YS02001658 CONDUIT    960.49     0  01:45      2.52    0.38    1.00
  YS02001664YS02001661 CONDUIT    953.99     0  01:45      2.54    0.30    0.99
  YS02001745YS02001748 CONDUIT    682.45     0  01:44      2.46    0.26    1.00
  YS02001748YS02001751 CONDUIT    613.53     0  01:44      1.96    0.31    1.00
  YS02001751YS02001754 CONDUIT    614.22     0  01:44      1.62    0.30    1.00
  YS02001754YS02001757 CONDUIT    613.03     0  01:44      0.78    0.25    1.00
  YS02001757CaochengTiaoxuchi CONDUIT   3319.56     0  01:50      7.20    1.44    1.00
  YS02001759YS02001757 CONDUIT   1446.26     0  01:44      1.84    1.03    1.00
  YS02001762YS02001759 CONDUIT    802.15     0  01:49      1.02    0.92    1.00
  YS02001765YS02001762 CONDUIT    802.16     0  01:49      1.02    0.75    1.00
  YS02001767YS02001765 CONDUIT    801.68     0  01:49      1.02    1.01    1.00
  YS02001770YS02001767 CONDUIT    800.96     0  01:49      1.02    3.17    1.00
  YS02001774YS02001770 CONDUIT    682.41     0  01:43      0.87    0.44    1.00
  YS02001779YS02001774 CONDUIT    688.79     0  01:43      0.88    0.35    1.00
  YS02001783YS02001784 CONDUIT   1164.09     0  01:43      2.32    1.60    1.00
  YS02001784YS02001785 CONDUIT   1164.83     0  01:43      2.32    2.71    1.00
  YS02001786YS02001788 CONDUIT   1164.81     0  01:43      2.50    2.24    1.00
  YS02001788YS02001790 CONDUIT   1198.59     0  01:43      2.79    0.88    1.00
  YS02001790YS02001791 CONDUIT   1286.48     0  01:46      3.43    1.40    1.00
  YS02001791YS02001793 CONDUIT   1250.76     0  02:10      6.76    0.54    1.00
  YS02001793JiankangQianchi CONDUIT   1492.93     0  02:11     24.32    0.12    1.00
  YS02001882YS02001884 CONDUIT    140.88     0  01:42      0.18    0.16    1.00
  YS02001884YS02001887 CONDUIT    169.47     0  01:42      0.22    0.23    1.00
  YS02001887YS02001890 CONDUIT    777.57     0  01:45      0.99    1.33    1.00
  YS02001890YS02001895 CONDUIT    651.55     0  01:42      0.83    0.30    1.00
  YS02001895YS02001898 CONDUIT    650.86     0  01:42      0.83    1.13    1.00
  YS02001898YS02001901 CONDUIT    649.74     0  01:42      0.83    0.42    1.00
  YS02001901YS02001904 CONDUIT    649.30     0  01:42      0.83    1.01    1.00
  YS02001904YS02001907 CONDUIT    647.13     0  01:42      0.82    0.23    1.00
  YS02001907YS02006553 CONDUIT    726.16     0  02:08      0.81    0.85    1.00
  YS02001910YS02001907 CONDUIT   1219.88     0  01:44      1.55    0.69    1.00
  YS02001915YS02001910 CONDUIT   1219.90     0  01:44      1.55    0.61    1.00
  YS02001918YS02001915 CONDUIT    898.10     0  01:42      1.14    0.50    1.00
  YS02001920YS02001918 CONDUIT    830.47     0  01:43      1.06    0.80    1.00
  YS02001923YS02001920 CONDUIT    854.69     0  01:43      1.14    0.38    1.00
  YS02001926YS02001923 CONDUIT   1161.66     0  01:43      1.63    1.66    1.00
  YS02001929YS02001926 CONDUIT    694.76     0  01:43      1.25    0.33    1.00
  YS02006553YS02006556 CONDUIT    726.35     0  02:08      0.92    0.62    1.00
  YS02006556YS02006558 CONDUIT    727.61     0  02:08      0.93    0.57    1.00
  YS02006558YS02006561 CONDUIT   1188.32     0  01:42      4.21    2.63    1.00
  YS02006561YS02001783 CONDUIT   1164.04     0  01:44      2.32    0.60    1.00
  YS02163301YS02001633 CONDUIT    941.45     0  02:04      1.20    0.89    1.00
  YS02163601YS02164001 CONDUIT   1341.58     0  01:42      1.71    1.19    1.00
  YS02164001YS02001641 CONDUIT   1335.54     0  01:42      1.70    1.82    1.00
  YSB1154YSB6556       CONDUIT    396.12     0  01:45      1.03    0.71    1.00
  YSB1171HS02004479    CONDUIT    588.67     0  01:42      1.17    0.39    1.00
  YSB1174YSB1171       CONDUIT    363.80     0  01:45      0.95    0.56    1.00
  YSB6556YSB1171       CONDUIT    396.51     0  01:45      1.03    0.41    1.00
  CC-R1                PUMP       683.00     0  00:10              1.00
  CC-R2                PUMP       683.00     0  00:40              1.00
  CC-S1                PUMP       200.00     0  00:00              1.00
  CC-S2                PUMP       200.00     0  00:40              1.00
  JK-R1                PUMP      1000.00     0  00:00              1.00
  JK-R2                PUMP      1000.00     0  01:43              1.00
  JK-S                 PUMP       300.00     0  00:50              1.00
  XR-1                 PUMP        95.00     0  00:10              1.00
  XR-2                 PUMP        95.00     0  00:29              1.00
  XR-3                 PUMP         0.00     0  00:00              0.00
  XR-4                 PUMP         0.00     0  00:00              0.00
  
  
  ***************************
  Flow Classification Summary
  ***************************
  
  -------------------------------------------------------------------------------------
                      Adjusted    ---------- Fraction of Time in Flow Class ---------- 
                       /Actual         Up    Down  Sub   Sup   Up    Down  Norm  Inlet 
  Conduit               Length    Dry  Dry   Dry   Crit  Crit  Crit  Crit  Ltd   Ctrl  
  -------------------------------------------------------------------------------------
  1                       1.00   0.00  0.00  0.00  0.00  1.00  0.00  0.00  0.47  0.00
  HS02004478WS02006287    1.00   0.18  0.00  0.00  0.63  0.19  0.00  0.00  0.49  0.00
  HS02004479HS02004480    1.00   0.07  0.00  0.00  0.93  0.00  0.00  0.00  0.16  0.00
  HS02004480HS02004478    1.00   0.16  0.00  0.00  0.58  0.00  0.00  0.26  0.00  0.00
  HS02004770HS02004777    1.00   0.00  0.15  0.00  0.85  0.00  0.00  0.00  0.05  0.00
  HS02004777HS02004785    1.00   0.00  0.00  0.00  1.00  0.00  0.00  0.00  0.18  0.00
  HS02004785HS02004788    1.00   0.00  0.00  0.00  1.00  0.00  0.00  0.00  0.00  0.00
  HS02004788HS02004792    1.00   0.00  0.00  0.00  0.97  0.03  0.00  0.00  0.89  0.00
  HS02004792HS02004799    1.00   0.00  0.00  0.00  0.96  0.04  0.00  0.00  0.85  0.00
  HS02004799HS02004480    1.00   0.01  0.07  0.00  0.82  0.00  0.11  0.00  0.00  0.00
  HS02004802HS02004478    1.00   0.16  0.01  0.00  0.84  0.00  0.00  0.00  0.03  0.00
  HS02004807HS02004802    1.00   0.15  0.00  0.00  0.84  0.00  0.00  0.01  0.01  0.00
  HS02004817HS02004807    1.00   0.00  0.15  0.00  0.85  0.00  0.00  0.00  0.01  0.00
  HS02004817HS02004824    1.00   0.00  0.00  0.00  1.00  0.00  0.00  0.00  0.81  0.00
  HS02004824HS02004830    1.00   0.00  0.00  0.00  1.00  0.00  0.00  0.00  0.00  0.00
  HS02004830HS02004837    1.00   0.00  0.00  0.00  0.99  0.01  0.00  0.00  0.86  0.00
  HS02004837HS02004842    1.00   0.00  0.00  0.00  0.98  0.02  0.00  0.00  0.14  0.00
  HS02004842HS02004848    1.00   0.00  0.15  0.00  0.85  0.00  0.00  0.00  0.46  0.00
  HS02004848HS02004852    1.00   0.15  0.00  0.00  0.85  0.00  0.00  0.00  0.62  0.00
  HS02004852HS02004856    1.00   0.15  0.01  0.00  0.84  0.00  0.00  0.00  0.61  0.00
  HS02004856HS02004862    1.00   0.00  0.19  0.00  0.81  0.00  0.00  0.00  0.66  0.00
  HS02004862HS02004870    1.00   0.00  0.00  0.00  1.00  0.00  0.00  0.00  0.05  0.00
  HS02004870HS02004876    1.00   0.02  0.00  0.00  0.98  0.01  0.00  0.00  0.83  0.00
  HS02004876HS02004881    1.00   0.06  0.00  0.00  0.78  0.16  0.00  0.00  0.00  0.00
  HS02004881HS02006253    1.00   0.03  0.06  0.00  0.55  0.02  0.00  0.35  0.39  0.00
  HS02004901HS02004770    1.00   0.15  0.00  0.00  0.85  0.00  0.00  0.00  0.01  0.00
  WS02001211WS02001212    1.00   0.00  0.07  0.00  0.93  0.00  0.00  0.00  0.00  0.00
  WS02001212WS02001213    1.00   0.07  0.00  0.00  0.46  0.00  0.48  0.00  0.00  0.00
  WS02001213WS02003059    1.00   0.01  0.02  0.00  0.97  0.00  0.00  0.00  0.00  0.00
  WS02003059WS02003060    1.00   0.00  0.00  0.00  0.99  0.01  0.00  0.00  0.04  0.00
  WS02003060WS02003069    1.00   0.00  0.00  0.00  0.97  0.03  0.00  0.00  0.22  0.00
  WS02003066WSF200        1.00   0.15  0.00  0.00  0.00  0.85  0.00  0.00  0.53  0.00
  WS02003067WS02003066    1.00   0.14  0.00  0.00  0.85  0.00  0.00  0.00  0.00  0.00
  WS02003069WS02003072    1.00   0.00  0.00  0.00  0.99  0.01  0.00  0.00  0.42  0.00
  WS02003072WS02003073    1.00   0.00  0.00  0.00  0.00  0.00  0.00  1.00  0.00  0.00
  WS02004138WS02004139    1.00   0.05  0.01  0.00  0.93  0.01  0.00  0.00  0.97  0.00
  WS02004139WS02001211    1.00   0.00  0.02  0.00  0.98  0.00  0.00  0.00  0.00  0.00
  WS02004401WS02004402    1.00   0.07  0.00  0.00  0.93  0.00  0.00  0.00  0.00  0.00
  WS02004402WS02004403    1.00   0.07  0.00  0.00  0.93  0.00  0.00  0.00  0.00  0.00
  WS02004403WS02004404    1.00   0.00  0.07  0.00  0.93  0.00  0.00  0.00  0.00  0.00
  WS02004404WS02004405    1.00   0.00  0.00  0.00  1.00  0.00  0.00  0.00  0.00  0.00
  WS02004405WS02004406    1.00   0.00  0.00  0.00  1.00  0.00  0.00  0.00  0.01  0.00
  WS02004406WS02004407    1.00   0.00  0.08  0.00  0.91  0.00  0.00  0.00  0.00  0.00
  WS02004407WS02004409    1.00   0.09  0.00  0.00  0.89  0.02  0.00  0.00  0.77  0.00
  WS02004409WS02004410    1.00   0.09  0.00  0.00  0.91  0.00  0.00  0.00  0.01  0.00
  WS02004410WS02004411    1.00   0.09  0.00  0.00  0.91  0.00  0.00  0.00  0.01  0.00
  WS02004411WS02004412    1.00   0.09  0.00  0.00  0.91  0.00  0.00  0.00  0.00  0.00
  WS02004412WS02004413    1.00   0.09  0.00  0.00  0.91  0.00  0.00  0.00  0.02  0.00
  WS02004413WS02003067    1.00   0.09  0.05  0.00  0.00  0.00  0.86  0.00  0.00  0.00
  WS02006109WS02006110    1.00   0.00  0.03  0.00  0.93  0.00  0.03  0.00  0.00  0.00
  WS02006110WS02006113    1.00   0.03  0.03  0.00  0.93  0.00  0.00  0.00  0.00  0.00
  WS02006111WS02006112    1.00   0.07  0.00  0.00  0.93  0.00  0.00  0.00  0.72  0.00
  WS02006112WS02006115    1.00   0.07  0.00  0.00  0.93  0.00  0.00  0.00  0.00  0.00
  WS02006113WS02006111    1.00   0.07  0.00  0.00  0.22  0.71  0.00  0.00  0.14  0.00
  WS02006115WS02006116    1.00   0.07  0.00  0.00  0.92  0.00  0.00  0.01  0.00  0.00
  WS02006116WS02004401    1.00   0.07  0.00  0.00  0.93  0.00  0.00  0.00  0.00  0.00
  WS02006228WS02006109    1.00   0.00  0.00  0.00  1.00  0.00  0.00  0.00  0.01  0.00
  WS02006229WS02006228    1.00   0.00  0.00  0.00  0.97  0.00  0.00  0.03  0.00  0.00
  WS02006230WS02006229    1.00   0.00  0.00  0.00  0.94  0.00  0.00  0.06  0.00  0.00
  WS02006231WS02006230    1.00   0.05  0.00  0.00  0.39  0.00  0.57  0.00  0.00  0.00
  WS02006232WS02006231    1.00   0.04  0.01  0.00  0.94  0.00  0.01  0.00  0.00  0.00
  WS02006234WS02006232    1.00   0.03  0.00  0.00  0.96  0.01  0.00  0.00  0.00  0.00
  WS02006235WS02006234    1.00   0.03  0.00  0.00  0.95  0.00  0.02  0.00  0.00  0.00
  WS02006238WS02006235    1.00   0.03  0.01  0.00  0.96  0.01  0.00  0.00  0.00  0.00
  WS02006239WS02006238    1.00   0.02  0.00  0.00  0.97  0.00  0.00  0.01  0.01  0.00
  WS02006240WS02006239    1.00   0.02  0.00  0.00  0.91  0.00  0.00  0.07  0.02  0.00
  WS02006242WS02006240    1.00   0.01  0.01  0.00  0.96  0.00  0.02  0.00  0.00  0.00
  WS02006243WS02006242    1.00   0.01  0.00  0.00  0.97  0.00  0.00  0.02  0.37  0.00
  WS02006245WS02006243    1.00   0.01  0.00  0.00  0.94  0.00  0.00  0.06  0.01  0.00
  WS02006247WS02006245    1.00   0.00  0.00  0.00  0.97  0.00  0.00  0.02  0.00  0.00
  WS02006248WS02006247    1.00   0.00  0.00  0.00  0.98  0.00  0.00  0.01  0.38  0.00
  WS02006249WS02006248    1.00   0.00  0.00  0.00  0.74  0.00  0.26  0.00  0.00  0.00
  WS02006251WS02006249    1.00   0.00  0.00  0.00  1.00  0.00  0.00  0.00  0.36  0.00
  WS02006252WS02006251    1.00   0.00  0.08  0.00  0.24  0.00  0.68  0.00  0.03  0.00
  WS02006253WS02006251    1.00   0.00  0.00  0.00  1.00  0.00  0.00  0.00  0.00  0.00
  WS02006256WS02006235    1.00   0.03  0.00  0.00  0.96  0.01  0.00  0.00  0.00  0.00
  WS02006280WS02006229    1.00   0.16  0.00  0.00  0.15  0.07  0.00  0.62  0.03  0.00
[...]
  WSF200WS02003060        1.00   0.00  0.15  0.00  0.54  0.32  0.00  0.00  0.39  0.00
  YS02001580YS02001583    1.00   0.22  0.55  0.00  0.22  0.00  0.00  0.00  0.61  0.00
  YS02001583YS02001586    1.00   0.23  0.48  0.00  0.29  0.00  0.00  0.00  0.62  0.00
  YS02001586YS02001590    1.00   0.15  0.00  0.00  0.58  0.04  0.00  0.23  0.43  0.00
  YS02001590YS02001593    1.00   0.15  0.01  0.00  0.13  0.00  0.71  0.00  0.00  0.00
  YS02001593YS02001596    1.00   0.16  0.00  0.00  0.14  0.01  0.00  0.69  0.02  0.00
  YS02001596YS02001600    1.00   0.16  0.00  0.00  0.21  0.02  0.00  0.61  0.06  0.00
  YS02001600YS02001601    1.00   0.16  0.01  0.00  0.84  0.00  0.00  0.00  0.52  0.00
  YS02001601YS02001602    1.00   0.15  0.01  0.00  0.84  0.00  0.00  0.00  0.00  0.00
  YS02001602YS02001605    1.00   0.16  0.00  0.00  0.84  0.00  0.00  0.00  0.00  0.00
  YS02001605YS02001607    1.00   0.16  0.00  0.00  0.84  0.00  0.00  0.00  0.00  0.00
  YS02001607YS02001610    1.00   0.16  0.01  0.00  0.84  0.00  0.00  0.00  0.03  0.00
  YS02001610YS02001613    1.00   0.15  0.00  0.00  0.85  0.00  0.00  0.00  0.02  0.00
  YS02001613YS02001616    1.00   0.15  0.00  0.00  0.85  0.00  0.00  0.00  0.01  0.00
  YS02001616YS02001619    1.00   0.15  0.00  0.00  0.85  0.00  0.00  0.00  0.00  0.00
  YS02001619YS02001622    1.00   0.15  0.00  0.00  0.85  0.00  0.00  0.00  0.09  0.00
  YS02001622YS02001625    1.00   0.15  0.00  0.00  0.85  0.00  0.00  0.00  0.08  0.00
  YS02001625YS02001629    1.00   0.15  0.04  0.00  0.17  0.00  0.64  0.00  0.00  0.00
  YS02001629YS02163301    1.00   0.18  0.00  0.00  0.81  0.00  0.00  0.00  0.00  0.00
  YS02001633YS02163601    1.00   0.00  0.02  0.00  0.98  0.00  0.00  0.00  0.21  0.00
  YS02001641YS02001644    1.00   0.00  0.02  0.00  0.98  0.00  0.00  0.00  0.00  0.00
  YS02001644YS02001647    1.00   0.00  0.19  0.00  0.81  0.00  0.00  0.00  0.00  0.00
  YS02001647YS02001649    1.00   0.00  0.19  0.00  0.38  0.43  0.00  0.00  0.46  0.00
  YS02001649YS02001757    1.00   0.00  0.00  0.00  0.67  0.32  0.00  0.00  0.71  0.00
  YS02001652YS02001649    1.00   0.00  0.00  0.00  0.97  0.03  0.00  0.00  0.68  0.00
  YS02001655YS02001652    1.00   0.00  0.00  0.00  0.21  0.01  0.00  0.78  0.07  0.00
  YS02001658YS02001655    1.00   0.00  0.17  0.00  0.63  0.21  0.00  0.00  0.67  0.00
  YS02001661YS02001658    1.00   0.17  0.00  0.00  0.26  0.57  0.00  0.00  0.67  0.00
  YS02001664YS02001661    1.00   0.15  0.00  0.00  0.72  0.13  0.00  0.00  0.81  0.00
  YS02001745YS02001748    1.00   0.00  0.00  0.00  0.04  0.01  0.00  0.95  0.03  0.00
  YS02001748YS02001751    1.00   0.00  0.00  0.00  0.83  0.17  0.00  0.00  0.79  0.00
  YS02001751YS02001754    1.00   0.00  0.00  0.00  0.19  0.01  0.00  0.80  0.05  0.00
  YS02001754YS02001757    1.00   0.00  0.00  0.00  1.00  0.00  0.00  0.00  0.78  0.00
  YS02001757CaochengTiaoxuchi    1.00   0.00  0.00  0.00  0.63  0.37  0.00  0.00  0.38  0.00
  YS02001759YS02001757    1.00   0.00  0.00  0.00  1.00  0.00  0.00  0.00  0.65  0.00
  YS02001762YS02001759    1.00   0.00  0.00  0.00  1.00  0.00  0.00  0.00  0.06  0.00
  YS02001765YS02001762    1.00   0.00  0.00  0.00  1.00  0.00  0.00  0.00  0.70  0.00
  YS02001767YS02001765    1.00   0.00  0.00  0.00  1.00  0.00  0.00  0.00  0.00  0.00
  YS02001770YS02001767    1.00   0.00  0.00  0.00  1.00  0.00  0.00  0.00  0.00  0.00
  YS02001774YS02001770    1.00   0.01  0.15  0.00  0.84  0.00  0.00  0.00  0.05  0.00
  YS02001779YS02001774    1.00   0.00  0.00  0.00  1.00  0.00  0.00  0.00  0.74  0.00
  YS02001783YS02001784    1.00   0.00  0.19  0.00  0.81  0.00  0.00  0.00  0.43  0.00
  YS02001784YS02001785    1.00   0.00  0.00  0.00  1.00  0.00  0.00  0.00  0.24  0.00
  YS02001786YS02001788    1.00   0.00  0.00  0.00  0.78  0.22  0.00  0.00  0.00  0.00
  YS02001788YS02001790    1.00   0.00  0.00  0.00  0.26  0.74  0.00  0.00  0.81  0.00
  YS02001790YS02001791    1.00   0.00  0.00  0.00  0.07  0.93  0.00  0.00  0.18  0.00
  YS02001791YS02001793    1.00   0.00  0.00  0.00  0.04  0.96  0.00  0.00  0.01  0.00
  YS02001793JiankangQianchi    1.00   0.00  0.01  0.00  0.26  0.73  0.00  0.00  0.25  0.00
  YS02001882YS02001884    1.00   0.18  0.01  0.00  0.82  0.00  0.00  0.00  0.00  0.00
  YS02001884YS02001887    1.00   0.08  0.05  0.00  0.87  0.00  0.00  0.00  0.00  0.00
  YS02001887YS02001890    1.00   0.00  0.01  0.00  0.93  0.00  0.06  0.00  0.00  0.00
  YS02001890YS02001895    1.00   0.01  0.18  0.00  0.81  0.00  0.00  0.00  0.00  0.00
  YS02001895YS02001898    1.00   0.19  0.00  0.00  0.80  0.00  0.01  0.00  0.00  0.00
  YS02001898YS02001901    1.00   0.19  0.00  0.00  0.81  0.00  0.00  0.00  0.01  0.00
  YS02001901YS02001904    1.00   0.19  0.00  0.00  0.81  0.00  0.00  0.00  0.00  0.00
  YS02001904YS02001907    1.00   0.01  0.18  0.00  0.81  0.00  0.00  0.00  0.00  0.00
  YS02001907YS02006553    1.00   0.01  0.06  0.00  0.94  0.00  0.00  0.00  0.00  0.00
  YS02001910YS02001907    1.00   0.00  0.00  0.00  0.93  0.00  0.00  0.06  0.17  0.00
  YS02001915YS02001910    1.00   0.00  0.00  0.00  0.96  0.04  0.00  0.00  0.23  0.00
  YS02001918YS02001915    1.00   0.00  0.02  0.00  0.94  0.04  0.00  0.00  0.69  0.00
  YS02001920YS02001918    1.00   0.00  0.02  0.00  0.98  0.00  0.00  0.00  0.00  0.00
  YS02001923YS02001920    1.00   0.00  0.00  0.00  1.00  0.00  0.00  0.00  0.91  0.00
  YS02001926YS02001923    1.00   0.00  0.09  0.00  0.07  0.00  0.84  0.00  0.00  0.00
  YS02001929YS02001926    1.00   0.00  0.15  0.00  0.85  0.00  0.00  0.00  0.76  0.00
  YS02006553YS02006556    1.00   0.04  0.00  0.00  0.96  0.00  0.00  0.00  0.04  0.00
  YS02006556YS02006558    1.00   0.00  0.01  0.00  0.99  0.00  0.00  0.00  0.00  0.00
  YS02006558YS02006561    1.00   0.19  0.00  0.00  0.07  0.73  0.00  0.00  0.24  0.00
  YS02006561YS02001783    1.00   0.19  0.00  0.00  0.10  0.71  0.00  0.00  0.61  0.00
  YS02163301YS02001633    1.00   0.00  0.18  0.00  0.82  0.00  0.00  0.00  0.00  0.00
  YS02163601YS02164001    1.00   0.00  0.09  0.00  0.91  0.00  0.00  0.00  0.00  0.00
  YS02164001YS02001641    1.00   0.02  0.07  0.00  0.91  0.00  0.00  0.00  0.08  0.00
  YSB1154YSB6556          1.00   0.15  0.00  0.00  0.85  0.00  0.00  0.00  0.03  0.00
  YSB1171HS02004479       1.00   0.08  0.00  0.00  0.92  0.00  0.00  0.01  0.15  0.00
  YSB1174YSB1171          1.00   0.08  0.02  0.00  0.90  0.00  0.00  0.00  0.00  0.00
  YSB6556YSB1171          1.00   0.08  0.07  0.00  0.85  0.00  0.00  0.00  0.00  0.00
  
  
  *************************
  Conduit Surcharge Summary
  *************************
  
  ----------------------------------------------------------------------------
                                                           Hours        Hours 
                         --------- Hours Full --------   Above Full   Capacity
  Conduit                Both Ends  Upstream  Dnstream   Normal Flow   Limited
  ----------------------------------------------------------------------------
  HS02004478WS02006287        0.40      0.40      0.53      0.01         0.01
  HS02004479HS02004480        0.55      0.55      0.56      0.01         0.01
  HS02004480HS02004478        0.48      0.54      0.48      1.37         0.48
  HS02004770HS02004777        0.47      0.47      0.47      0.09         0.06
  HS02004777HS02004785        0.43      0.43      0.47      0.01         0.01
  HS02004785HS02004788        0.41      0.43      0.41      1.07         0.37
  HS02004788HS02004792        0.41      0.41      0.51      0.01         0.01
  HS02004792HS02004799        0.51      0.51      0.61      0.01         0.01
  HS02004799HS02004480        0.54      0.54      0.61      0.67         0.01
  HS02004802HS02004478        0.49      0.49      0.55      0.02         0.01
  HS02004807HS02004802        0.53      0.53      0.54      0.20         0.21
  HS02004817HS02004807        0.53      0.53      0.94      0.01         0.01
  HS02004817HS02004824        0.42      0.42      0.94      0.01         0.01
  HS02004824HS02004830        0.39      0.39      0.42      0.01         0.01
  HS02004830HS02004837        0.36      0.36      0.39      0.01         0.01
  HS02004837HS02004842        0.36      0.36      0.47      0.01         0.01
  HS02004842HS02004848        0.34      0.34      0.47      0.01         0.01
  HS02004848HS02004852        0.33      0.34      0.35      0.02         0.01
  HS02004852HS02004856        0.35      0.35      0.37      0.02         0.01
  HS02004856HS02004862        0.33      0.34      0.37      0.01         0.01
  HS02004862HS02004870        0.37      0.37      0.38      0.09         0.07
  HS02004870HS02004876        0.38      0.38      0.43      0.01         0.01
  HS02004876HS02004881        0.41      0.43      0.41      1.12         0.41
  HS02004881HS02006253        0.41      0.41      1.52      0.01         0.01
  HS02004901HS02004770        0.47      0.47      0.48      0.01         0.01
  WS02003072WS02003073        0.01      0.01      0.01      2.63         0.01
  WS02004401WS02004402        1.36      1.36      1.37      1.17         1.15
  WS02004402WS02004403        1.37      1.37      1.37      1.37         1.36
  WS02004403WS02004404        1.37      1.37      1.42      0.01         0.02
  WS02004404WS02004405        1.41      1.42      1.41      3.74         1.41
  WS02004405WS02004406        1.40      1.41      1.40      1.71         1.40
  WS02004406WS02004407        0.01      0.01      1.40      0.01         0.01
  WS02004407WS02004409        0.01      0.01      0.74      0.01         0.01
  WS02004409WS02004410        0.70      0.74      0.70      1.32         0.70
  WS02004410WS02004411        0.64      0.70      0.64      1.36         0.64
  WS02004411WS02004412        0.58      0.64      0.58      1.37         0.58
  WS02004412WS02004413        0.58      0.58      1.02      0.01         0.01
  WS02004413WS02003067        0.01      0.01      1.02      0.01         0.01
  WS02006109WS02006110        1.65      1.65      2.05      1.66         0.01
  WS02006110WS02006113        0.92      0.92      1.99      0.31         0.01
  WS02006111WS02006112        0.88      0.88      2.28      0.01         0.01
  WS02006112WS02006115        1.34      1.34      1.74      0.01         0.01
  WS02006113WS02006111        0.90      0.92      0.90      1.14         0.90
  WS02006115WS02006116        1.35      1.35      1.35      1.31         1.28
  WS02006116WS02004401        1.36      1.36      1.36      1.37         1.35
  WS02006228WS02006109        1.93      2.05      1.93      2.96         1.93
  WS02006229WS02006228        1.91      1.95      1.91      2.32         1.91
  WS02006230WS02006229        2.16      2.25      2.17      4.04         1.39
  WS02006231WS02006230        1.42      1.43      1.64      3.62         0.72
  WS02006232WS02006231        1.62      1.62      1.82      0.01         0.12
  WS02006234WS02006232        1.68      1.68      1.82      0.01         0.01
  WS02006235WS02006234        1.65      1.66      1.68      3.24         0.71
  WS02006238WS02006235        1.69      1.69      1.78      0.01         0.28
  WS02006239WS02006238        1.71      1.74      1.72      1.24         0.31
  WS02006240WS02006239        1.65      1.66      1.66      1.23         0.28
  WS02006242WS02006240        1.65      1.65      1.83      1.52         0.67
  WS02006243WS02006242        1.65      1.65      1.75      0.01         0.01
  WS02006245WS02006243        1.62      1.63      1.63      0.59         0.25
  WS02006247WS02006245        1.61      1.65      1.62      2.91         0.76
  WS02006248WS02006247        1.61      1.61      1.64      0.01         0.01
  WS02006249WS02006248        1.59      1.59      1.61      1.88         0.01
  WS02006251WS02006249        1.60      1.61      1.61      1.76         1.36
  WS02006252WS02006251        2.06      2.06      2.08      1.30         0.01
  WS02006253WS02006251        1.60      1.61      1.64      0.63         0.02
  WS02006256WS02006235        3.48      3.49      5.84      0.56         0.01
  WS02006280WS02006229        0.61      0.61      0.71      0.01         0.01
  WS02006284WS02006280        0.55      0.55      0.60      0.01         0.01
  WS02006287WS02006284        0.48      0.48      0.56      0.23         0.24
  YS02001580YS02001583        0.48      0.48      0.51      0.01         0.01
  YS02001583YS02001586        0.49      0.49      0.58      0.01         0.01
  YS02001586YS02001590        0.59      0.59      0.64      0.01         0.01
  YS02001590YS02001593        0.64      0.64      0.66      0.70         0.01
  YS02001593YS02001596        0.65      0.65      0.72      0.01         0.01
  YS02001596YS02001600        0.76      0.76      0.84      0.01         0.01
  YS02001600YS02001601        0.88      0.88      1.13      0.01         0.01
  YS02001601YS02001602        1.03      1.03      1.17      0.85         0.01
  YS02001602YS02001605        0.99      0.99      1.03      1.90         0.01
  YS02001605YS02001607        0.96      0.99      0.96      1.09         0.96
  YS02001607YS02001610        0.57      0.57      0.60      0.01         0.01
  YS02001610YS02001613        0.57      0.57      0.60      0.01         0.01
  YS02001613YS02001616        0.53      0.53      0.57      0.01         0.01
  YS02001616YS02001619        0.52      0.52      0.53      0.01         0.01
  YS02001619YS02001622        0.51      0.52      0.51      0.69         0.49
  YS02001622YS02001625        0.51      0.51      0.68      0.01         0.01
  YS02001625YS02001629        0.42      0.42      0.68      0.01         0.01
  YS02001629YS02163301        0.66      0.66      0.67      0.29         0.30
  YS02001633YS02163601        0.69      0.69      0.71      0.41         0.42
  YS02001641YS02001644        0.55      0.59      0.55      1.22         0.54
  YS02001644YS02001647        0.34      0.34      0.55      0.03         0.01
  YS02001647YS02001649        0.34      0.34      0.39      0.01         0.01
  YS02001649YS02001757        0.38      0.39      0.38      0.32         0.29
  YS02001652YS02001649        0.28      0.28      0.39      0.01         0.01
  YS02001655YS02001652        0.19      0.19      0.26      0.01         0.01
  YS02001658YS02001655        0.12      0.12      0.19      0.01         0.01
  YS02001661YS02001658        0.01      0.01      0.12      0.01         0.01
  YS02001664YS02001661        0.01      0.01      0.02      0.01         0.01
  YS02001745YS02001748        0.01      0.01      0.04      0.01         0.01
  YS02001748YS02001751        0.11      0.11      0.13      0.01         0.01
  YS02001751YS02001754        0.13      0.13      0.19      0.01         0.01
  YS02001754YS02001757        0.20      0.20      0.38      0.01         0.01
  YS02001757CaochengTiaoxuchi        0.03      0.38      1.09      0.38         0.01
  YS02001759YS02001757        0.31      0.31      0.38      0.01         0.01
  YS02001762YS02001759        0.30      0.30      0.31      0.01         0.02
  YS02001765YS02001762        0.28      0.28      0.30      0.01         0.01
  YS02001767YS02001765        0.26      0.26      0.28      0.01         0.04
  YS02001770YS02001767        0.26      0.26      0.26      0.46         0.25
  YS02001774YS02001770        0.25      0.25      0.30      0.01         0.01
  YS02001779YS02001774        0.21      0.21      0.30      0.01         0.01
  YS02001783YS02001784        0.48      0.49      0.48      0.57         0.48
  YS02001784YS02001785        0.44      0.48      0.44      0.71         0.44
  YS02001786YS02001788        0.17      0.44      0.17      0.63         0.17
  YS02001788YS02001790        0.17      0.17      0.22      0.01         0.01
  YS02001790YS02001791        0.22      0.22      0.22      0.48         0.21
  YS02001791YS02001793        0.22      0.22      0.25      0.01         0.01
  YS02001793JiankangQianchi        0.24      0.24      0.77      0.01         0.01
  YS02001882YS02001884        0.45      0.45      0.46      0.01         0.01
  YS02001884YS02001887        0.47      0.47      0.48      0.01         0.01
  YS02001887YS02001890        0.49      0.49      0.50      0.09         0.01
  YS02001890YS02001895        0.44      0.44      0.50      0.01         0.01
  YS02001895YS02001898        0.43      0.43      0.44      0.02         0.01
  YS02001898YS02001901        0.44      0.44      0.47      0.01         0.01
  YS02001901YS02001904        0.46      0.46      0.47      0.01         0.01
  YS02001904YS02001907        0.46      0.46      0.62      0.01         0.01
  YS02001907YS02006553        0.73      0.73      0.77      0.01         0.01
  YS02001910YS02001907        0.50      0.50      0.61      0.01         0.01
  YS02001915YS02001910        0.45      0.45      0.50      0.01         0.01
  YS02001918YS02001915        0.38      0.38      0.45      0.01         0.01
  YS02001920YS02001918        0.38      0.38      0.39      0.01         0.01
  YS02001923YS02001920        0.33      0.33      0.39      0.01         0.01
  YS02001926YS02001923        0.01      0.02      0.03      0.01         0.01
  YS02001929YS02001926        0.01      0.01      0.03      0.01         0.01
  YS02006553YS02006556        0.56      0.56      0.62      0.01         0.01
  YS02006556YS02006558        0.59      0.59      0.63      0.01         0.01
  YS02006558YS02006561        0.43      0.55      0.43      0.69         0.43
  YS02006561YS02001783        0.39      0.39      0.49      0.01         0.01
  YS02163301YS02001633        0.67      0.67      0.70      0.01         0.01
  YS02163601YS02164001        0.61      0.61      0.71      0.24         0.01
  YS02164001YS02001641        0.59      0.61      0.59      0.62         0.47
  YSB1154YSB6556              0.59      0.59      0.69      0.01         0.01
  YSB1171HS02004479           0.51      0.51      0.69      0.01         0.01
  YSB1174YSB1171              0.63      0.63      0.86      0.01         0.01
  YSB6556YSB1171              0.59      0.59      0.97      0.01         0.01
  
  
  ***************
  Pumping Summary
  ***************
  
  ---------------------------------------------------------------------------------------------------------
                                                  Min       Avg       Max     Total     Power    % Time Off
                        Percent   Number of      Flow      Flow      Flow    Volume     Usage    Pump Curve
  Pump                 Utilized   Start-Ups       LPS       LPS       LPS  10^6 ltr     Kw-hr    Low   High
  ---------------------------------------------------------------------------------------------------------
  CC-R1                   66.62          10      0.00    441.25    683.00     5.817     99.20    0.0   77.0
  CC-R2                   33.21           7      0.00    312.20    683.00     2.293     38.61    0.0   84.3
  CC-S1                   72.15           8      0.00    141.64    200.00     1.991     14.87    0.0   53.2
  CC-S2                   47.12           9      0.00    112.02    200.00     1.192      9.22    0.0   61.8
  JK-R1                   63.81           9      0.00    204.25   1000.00     2.305     17.30    0.0    0.0
  JK-R2                   38.79          10      0.00    231.10   1000.00     1.449      5.52    0.0    0.0
  JK-S                    41.76           8      0.00    125.25    300.00     1.014     19.60    0.0    0.0
  XR-1                    97.22           1      0.00     95.00     95.00     1.995      8.83    0.0    0.0
  XR-2                    91.93           1      0.00     95.00     95.00     1.886      7.99    0.0    0.0
  XR-3                     0.00           0      0.00      0.00      0.00     0.000      0.00    0.0    0.0
  XR-4                     0.00           0      0.00      0.00      0.00     0.000      0.00    0.0    0.0
  

  Analysis begun on:  Mon Aug 22 16:56:00 2022
  Analysis ended on:  Mon Aug 22 16:56:05 2022
  Total elapsed time: 00:00:05