
  OWA STORM WATER MANAGEMENT MODEL - VERSION v5.1.14 (OWA 2022-07-31)
  --------------------------------------------------------------

  WARNING 04: minimum elevation drop used for Conduit WS02004404WS02004405
  WARNING 03: negative offset ignored for Link YS02001904YS02001907
  
  *********************************************************
  NOTE: The summary statistics displayed in this report are
  based on results found at every computational time step,  
  not just on results from each reporting time step.
  *********************************************************
  
  ****************
  Analysis Options
  ****************
  Flow Units ............... LPS
  Process Models:
    Rainfall/Runoff ........ YES
    RDII ................... NO
    Snowmelt ............... NO
    Groundwater ............ NO
    Flow Routing ........... YES
    Ponding Allowed ........ NO
    Water Quality .......... NO
  Infiltration Method ...... HORTON
  Flow Routing Method ...... DYNWAVE
  Surcharge Method ......... EXTRAN
  Starting Date ............ 01/01/2000 00:00:00
  Ending Date .............. 01/01/2000 06:00:00
  Antecedent Dry Days ...... 8.0
  Report Time Step ......... 00:01:00
  Wet Time Step ............ 00:01:00
  Dry Time Step ............ 00:01:00
  Routing Time Step ........ 30.00 sec
  Variable Time Step ....... YES
  Maximum Trials ........... 8
  Number of Threads ........ 4
  Head Tolerance ........... 0.001500 m
  
  
  **************************        Volume         Depth
  Runoff Quantity Continuity     hectare-m            mm
  **************************     ---------       -------
  Total Precipitation ......         1.922        31.725
  Evaporation Loss .........         0.000         0.000
  Infiltration Loss ........         0.209         3.455
  Surface Runoff ...........         1.648        27.210
  Final Storage ............         0.065         1.069
  Continuity Error (%) .....        -0.027
  
  
  **************************        Volume        Volume
  Flow Routing Continuity        hectare-m      10^6 ltr
  **************************     ---------     ---------
  Dry Weather Inflow .......         0.472         4.722
  Wet Weather Inflow .......         1.649        16.488
  Groundwater Inflow .......         0.000         0.000
  RDII Inflow ..............         0.000         0.000
  External Inflow ..........         0.078         0.784
  External Outflow .........         1.819        18.185
  Flooding Loss ............         0.535         5.351
  Evaporation Loss .........         0.000         0.000
  Exfiltration Loss ........         0.000         0.000
  Initial Stored Volume ....         0.303         3.031
  Final Stored Volume ......         0.265         2.651
  Continuity Error (%) .....        -4.647
  
  
  *************************
  Highest Continuity Errors
  *************************
  Node JK-storage (-38.51%)
  Node YS02001583 (-6.45%)
  Node YS02001884 (5.47%)
  Node HS02004842 (2.43%)
  Node HS02004817 (1.86%)
  
  
  ***************************
  Time-Step Critical Elements
  ***************************
  Link WS02006252WS02006251 (51.59%)
  Link WS02006280WS02006229 (24.55%)
  Link WS02004404WS02004405 (5.80%)
  Link WS02006238WS02006235 (4.30%)
  Link YS02001793JiankangQianchi (3.04%)
  
  
  ********************************
  Highest Flow Instability Indexes
  ********************************
  Link WS02006113WS02006111 (40)
  Link WS02006111WS02006112 (21)
  Link WS02006238WS02006235 (11)
  Link WS02006252WS02006251 (11)
  Link WS02004404WS02004405 (10)
  
  
  *************************
  Routing Time Step Summary
  *************************
  Minimum Time Step           :     0.50 sec
  Average Time Step           :     1.58 sec
  Maximum Time Step           :    30.00 sec
  Percent in Steady State     :     0.00
  Average Iterations per Step :     2.73
  Percent Not Converging      :     7.78
  
  
  ***************************
  Subcatchment Runoff Summary
  ***************************
  
  ------------------------------------------------------------------------------------------------------------------------------
                            Total      Total      Total      Total     Imperv       Perv      Total       Total     Peak  Runoff
                           Precip      Runon       Evap      Infil     Runoff     Runoff     Runoff      Runoff   Runoff   Coeff
  Subcatchment                 mm         mm         mm         mm         mm         mm         mm    10^6 ltr      LPS
  ------------------------------------------------------------------------------------------------------------------------------
  sub0                      31.73       0.00       0.00       0.83      28.24       1.39      29.63        0.02    18.86   0.934
  sub1                      31.73       0.00       0.00       1.47      26.93       2.02      28.95        0.19   138.92   0.913
  sub10                     31.73       0.00       0.00       1.02      27.85       1.52      29.37        0.32   236.03   0.926
  sub11                     31.73       0.00       0.00       1.00      27.89       1.54      29.43        0.34   257.30   0.928
  sub12                     31.73       0.00       0.00       1.63      26.41       2.50      28.91        0.25   199.34   0.911
  sub14                     31.73       0.00       0.00       1.15      27.57       1.71      29.28        0.28   207.14   0.923
  sub15                     31.73       0.00       0.00       4.66      21.20       4.86      26.06        0.45   317.67   0.822
  sub16                     31.73       0.00       0.00       4.79      20.33       5.69      26.02        0.27   208.53   0.820
  sub17                     31.73       0.00       0.00       4.67      20.63       5.48      26.11        0.22   170.05   0.823
  sub2                      31.73       0.00       0.00       6.59      19.02       5.15      24.17        0.23   140.35   0.762
  sub22                     31.73       0.00       0.00       7.06      17.28       6.59      23.87        1.51  1040.86   0.752
  sub23                     31.73       0.00       0.00       5.75      19.10       5.99      25.09        1.20   864.15   0.791
  sub3                      31.73       0.00       0.00       7.06      18.95       4.68      23.62        0.53   302.78   0.745
  sub4                      31.73       0.00       0.00       1.67      26.62       1.82      28.43        0.59   340.38   0.896
  sub5                      31.73       0.00       0.00       0.89      28.14       1.33      29.47        0.33   239.84   0.929
  sub60                     31.73       0.00       0.00       1.54      26.68       2.27      28.95        0.38   290.36   0.912
  sub61                     31.73       0.00       0.00       2.26      25.17       3.14      28.31        0.52   400.92   0.892
  sub62                     31.73       0.00       0.00       1.03      27.84       1.51      29.35        0.80   580.57   0.925
  sub63                     31.73       0.00       0.00       4.25      21.53       4.95      26.48        0.60   449.85   0.835
  sub64                     31.73       0.00       0.00       2.14      25.69       2.62      28.31        0.68   474.24   0.892
  sub65                     31.73       0.00       0.00       1.85      26.26       2.27      28.53        0.79   532.52   0.899
  sub66                     31.73       0.00       0.00       5.23      21.33       3.97      25.30        1.18   683.61   0.797
  sub67                     31.73       0.00       0.00       0.97      27.92       1.57      29.49        0.55   425.50   0.929
  sub68                     31.73       0.00       0.00       1.87      26.05       2.57      28.62        0.79   587.97   0.902
  sub69                     31.73       0.00       0.00       1.64      26.77       3.12      29.89        1.11   713.07   0.942
  sub7                      31.73       0.00       0.00       1.12      27.60       1.73      29.33        0.10    75.45   0.925
  sub70                     31.73       0.00       0.00       5.48      20.64       5.31      25.95        0.75   386.64   0.818
  sub71                     31.73       0.00       0.00       1.07      27.76       1.47      29.24        0.76   518.32   0.922
  sub72                     31.73       0.00       0.00       0.95      27.95       1.27      29.22        0.40   251.49   0.921
  sub8                      31.73       0.00       0.00       1.14      27.58       1.72      29.29        0.19   140.25   0.923
  sub9                      31.73       0.00       0.00       1.14      27.57       1.71      29.29        0.14   105.08   0.923
  
  
  ******************
  Node Depth Summary
  ******************
  
  ---------------------------------------------------------------------------------
                                 Average  Maximum  Maximum  Time of Max    Reported
                                   Depth    Depth      HGL   Occurrence   Max Depth
  Node                 Type       Meters   Meters   Meters  days hr:min      Meters
  ---------------------------------------------------------------------------------
  HS02004478           JUNCTION     0.13     1.57    10.79     0  02:32        1.47
  HS02004479           JUNCTION     0.19     1.70    10.90     0  02:32        1.67
  HS02004480           JUNCTION     0.16     1.67    10.91     0  02:32        1.62
  HS02004770           JUNCTION     0.16     1.42    11.25     0  02:28        1.42
  HS02004777           JUNCTION     0.19     1.48    11.28     0  02:28        1.46
  HS02004785           JUNCTION     0.11     1.49    11.39     0  02:28        1.36
  HS02004788           JUNCTION     0.08     1.42    11.32     0  02:28        1.33
  HS02004792           JUNCTION     0.12     1.60    11.12     0  02:28        1.60
  HS02004799           JUNCTION     0.21     1.76    10.97     0  02:29        1.76
  HS02004802           JUNCTION     0.21     1.77    10.90     0  02:32        1.59
  HS02004807           JUNCTION     0.18     1.92    11.09     0  02:32        1.59
  HS02004817           JUNCTION     0.48     2.40    11.25     0  02:32        1.93
  HS02004824           JUNCTION     0.08     1.99    11.40     0  02:32        1.38
  HS02004830           JUNCTION     0.09     2.01    11.48     0  02:32        1.33
  HS02004837           JUNCTION     0.07     1.96    11.54     0  02:32        1.42
  HS02004842           JUNCTION     0.37     2.22    11.49     0  02:32        2.05
  HS02004848           JUNCTION     0.05     2.06    11.66     0  02:32        1.98
  HS02004852           JUNCTION     0.05     2.08    11.59     0  02:32        1.88
  HS02004856           JUNCTION     0.10     2.00    11.43     0  02:32        1.69
  HS02004862           JUNCTION     0.06     2.00    11.38     0  02:31        1.52
  HS02004870           JUNCTION     0.06     1.88    11.16     0  02:31        1.44
  HS02004876           JUNCTION     0.10     1.91    10.94     0  02:31        1.54
  HS02004881           JUNCTION     0.05     2.14    11.16     0  02:31        1.37
  HS02004901           JUNCTION     0.17     1.42    11.24     0  02:28        1.42
  WS02001211           JUNCTION     0.63     0.80     5.64     0  02:37        0.80
  WS02001212           JUNCTION     0.37     0.56     5.62     0  02:36        0.56
  WS02001213           JUNCTION     0.59     0.85     5.62     0  02:36        0.85
  WS02003059           JUNCTION     0.65     0.92     5.61     0  02:36        0.92
  WS02003060           JUNCTION     0.36     0.67     5.60     0  02:36        0.67
  WS02003066           JUNCTION     0.21     0.45     6.00     0  02:35        0.45
  WS02003067           JUNCTION     0.52     0.88     6.20     0  02:35        0.88
  WS02003069           JUNCTION     0.41     0.76     5.35     0  02:36        0.76
  WS02003072           JUNCTION     0.47     0.80     5.17     0  02:37        0.80
  WS02003073           JUNCTION     0.28     0.51     4.57     0  02:37        0.51
  WS02004138           JUNCTION     0.14     0.14     7.39     0  00:29        0.14
  WS02004139           JUNCTION     0.57     0.73     5.64     0  02:38        0.73
  WS02004401           JUNCTION     0.70     1.82     7.82     0  02:21        1.74
  WS02004402           JUNCTION     0.73     1.78     7.74     0  02:21        1.69
  WS02004403           JUNCTION     0.74     1.75     7.68     0  02:21        1.62
  WS02004404           JUNCTION     0.81     1.76     7.61     0  02:21        1.63
  WS02004405           JUNCTION     0.80     1.69     7.54     0  02:21        1.59
  WS02004406           JUNCTION     0.81     1.49     7.32     0  02:35        1.48
  WS02004407           JUNCTION     0.23     0.84     7.15     0  02:35        0.84
  WS02004409           JUNCTION     0.48     1.33     7.10     0  02:34        1.32
  WS02004410           JUNCTION     0.49     1.25     6.97     0  02:34        1.24
  WS02004411           JUNCTION     0.50     1.17     6.85     0  02:35        1.16
  WS02004412           JUNCTION     0.52     1.08     6.72     0  02:34        1.08
  WS02004413           JUNCTION     0.67     1.13     6.60     0  02:35        1.13
  WS02006109           JUNCTION     0.84     2.64     9.26     0  02:28        2.64
  WS02006110           JUNCTION     0.81     2.35     8.93     0  02:32        2.34
  WS02006111           JUNCTION     0.31     1.64     8.35     0  02:21        1.61
  WS02006112           JUNCTION     0.89     2.68     8.56     0  00:00        2.22
  WS02006113           JUNCTION     0.40     1.74     8.63     0  02:35        1.74
  WS02006115           JUNCTION     0.60     1.93     8.07     0  02:21        1.82
  WS02006116           JUNCTION     0.68     1.93     7.97     0  02:21        1.82
  WS02006228           JUNCTION     0.86     3.03     9.68     0  02:32        3.02
  WS02006229           JUNCTION     0.85     3.23     9.92     0  02:32        3.20
  WS02006230           JUNCTION     0.81     2.65     9.39     0  02:26        2.65
  WS02006231           JUNCTION     0.57     2.19     9.31     0  02:30        2.19
  WS02006232           JUNCTION     0.68     2.18     9.22     0  02:26        2.18
  WS02006234           JUNCTION     0.58     1.96     9.12     0  02:25        1.96
  WS02006235           JUNCTION     0.60     1.97     9.14     0  02:50        1.93
  WS02006238           JUNCTION     0.62     1.99     9.13     0  02:50        1.92
  WS02006239           JUNCTION     0.58     1.84     9.05     0  02:50        1.78
  WS02006240           JUNCTION     0.54     1.67     8.96     0  02:50        1.62
  WS02006242           JUNCTION     0.59     1.55     8.82     0  02:23        1.55
  WS02006243           JUNCTION     0.49     1.47     8.89     0  02:20        1.36
  WS02006245           JUNCTION     0.48     1.30     8.79     0  02:20        1.26
  WS02006247           JUNCTION     0.50     1.23     8.73     0  02:50        1.22
  WS02006248           JUNCTION     0.45     1.10     8.69     0  02:21        1.10
  WS02006249           JUNCTION     0.48     1.09     8.69     0  02:20        1.09
  WS02006251           JUNCTION     0.52     2.21     9.88     0  02:21        2.10
  WS02006252           JUNCTION     0.38     1.50     9.74     0  02:21        1.50
  WS02006253           JUNCTION     0.57     3.47    11.11     0  02:31        2.67
  WS02006256           JUNCTION     0.88     2.35     9.28     0  00:46        2.35
  WS02006280           JUNCTION     0.17     1.75    10.02     0  02:32        1.71
  WS02006284           JUNCTION     0.44     1.95    10.35     0  02:32        1.87
  WS02006287           JUNCTION     0.17     1.73    10.69     0  02:32        1.63
  WSF200               JUNCTION     0.20     0.51     5.74     0  02:35        0.51
  YS02001580           JUNCTION     0.04     1.05     9.59     0  02:28        0.77
  YS02001583           JUNCTION     0.05     1.14     9.64     0  02:28        0.81
  YS02001586           JUNCTION     0.11     1.13     9.30     0  02:28        1.13
  YS02001590           JUNCTION     0.18     1.40     9.26     0  02:28        1.37
  YS02001593           JUNCTION     0.13     1.35     9.21     0  02:28        1.28
  YS02001596           JUNCTION     0.17     1.69     9.11     0  02:28        1.65
  YS02001600           JUNCTION     0.21     1.87     9.00     0  02:28        1.86
  YS02001601           JUNCTION     0.38     2.06     8.90     0  02:27        2.06
  YS02001602           JUNCTION     0.31     1.87     8.77     0  02:28        1.87
  YS02001605           JUNCTION     0.28     1.78     8.68     0  02:28        1.77
  YS02001607           JUNCTION     0.27     1.65     8.50     0  02:28        1.64
  YS02001610           JUNCTION     0.31     1.68     8.48     0  02:28        1.68
  YS02001613           JUNCTION     0.27     1.68     8.52     0  02:28        1.64
  YS02001616           JUNCTION     0.22     1.61     8.52     0  02:28        1.57
  YS02001619           JUNCTION     0.21     1.61     8.54     0  02:28        1.56
  YS02001622           JUNCTION     0.19     1.62     8.52     0  02:28        1.54
  YS02001625           JUNCTION     0.36     1.78     8.38     0  02:28        1.78
  YS02001629           JUNCTION     0.26     1.85     8.40     0  02:28        1.85
  YS02001633           JUNCTION     0.33     1.99     8.44     0  02:34        1.97
  YS02001641           JUNCTION     0.32     1.94     8.38     0  02:34        1.91
  YS02001644           JUNCTION     0.31     1.92     8.35     0  02:34        1.89
  YS02001647           JUNCTION     0.16     1.71     8.32     0  02:34        1.62
  YS02001649           JUNCTION     0.19     1.87     8.26     0  02:34        1.75
  YS02001652           JUNCTION     0.12     1.71     8.31     0  02:34        1.57
  YS02001655           JUNCTION     0.09     1.62     8.47     0  02:32        1.35
  YS02001658           JUNCTION     0.06     1.42     8.56     0  02:34        1.09
  YS02001661           JUNCTION     0.10     0.76     8.16     0  02:34        0.73
  YS02001664           JUNCTION     0.04     0.25     8.18     0  02:35        0.25
  YS02001745           JUNCTION     0.04     0.53     8.04     0  02:35        0.43
  YS02001748           JUNCTION     0.06     0.95     8.03     0  02:35        0.91
  YS02001751           JUNCTION     0.07     1.21     8.09     0  02:34        1.11
  YS02001754           JUNCTION     0.10     1.42     8.02     0  02:35        1.38
  YS02001757           JUNCTION     0.20     1.79     8.05     0  02:34        1.73
  YS02001759           JUNCTION     0.17     1.75     8.11     0  02:34        1.68
  YS02001762           JUNCTION     0.16     1.75     8.15     0  02:34        1.66
  YS02001765           JUNCTION     0.15     1.72     8.17     0  02:34        1.62
  YS02001767           JUNCTION     0.15     1.75     8.24     0  02:33        1.60
  YS02001770           JUNCTION     0.16     1.84     8.34     0  02:33        1.63
  YS02001774           JUNCTION     0.20     1.93     8.35     0  02:33        1.70
  YS02001779           JUNCTION     0.08     1.68     8.37     0  02:32        1.44
  YS02001783           JUNCTION     0.14     1.83     7.97     0  02:35        1.46
  YS02001784           JUNCTION     0.16     1.82     7.89     0  02:35        1.40
  YS02001786           JUNCTION     0.14     1.70     7.73     0  02:35        1.25
  YS02001788           JUNCTION     0.10     1.84     7.82     0  02:35        1.12
  YS02001790           JUNCTION     0.13     1.73     7.37     0  02:35        1.28
  YS02001791           JUNCTION     0.09     1.56     7.03     0  02:35        1.27
  YS02001793           JUNCTION     0.08     1.93     6.76     0  02:35        1.79
  YS02001882           JUNCTION     0.17     1.68     8.40     0  02:30        1.59
  YS02001884           JUNCTION     0.24     1.76     8.38     0  02:30        1.69
  YS02001887           JUNCTION     0.32     1.81     8.34     0  02:32        1.77
  YS02001890           JUNCTION     0.35     1.81     8.32     0  02:32        1.79
  YS02001895           JUNCTION     0.16     1.57     8.32     0  02:32        1.54
  YS02001898           JUNCTION     0.16     1.58     8.31     0  02:32        1.55
  YS02001901           JUNCTION     0.23     1.68     8.29     0  02:32        1.66
  YS02001904           JUNCTION     0.21     1.64     8.27     0  02:32        1.63
  YS02001907           JUNCTION     0.51     1.96     8.25     0  02:32        1.96
  YS02001910           JUNCTION     0.31     1.98     8.48     0  02:32        1.82
  YS02001915           JUNCTION     0.18     1.93     8.65     0  02:32        1.67
  YS02001918           JUNCTION     0.10     1.81     8.88     0  02:32        1.37
  YS02001920           JUNCTION     0.17     2.10     9.10     0  02:32        1.45
  YS02001923           JUNCTION     0.06     2.01     9.27     0  02:32        1.22
  YS02001926           JUNCTION     0.10     1.90     9.35     0  02:32        1.10
  YS02001929           JUNCTION     0.05     1.78     9.47     0  02:32        0.93
  YS02006553           JUNCTION     0.51     2.04     8.33     0  02:35        1.96
  YS02006556           JUNCTION     0.48     2.11     8.42     0  02:35        1.92
  YS02006558           JUNCTION     0.53     2.18     8.45     0  02:35        1.96
  YS02006561           JUNCTION     0.09     1.36     8.02     0  02:35        1.07
  YS02163301           JUNCTION     0.28     1.90     8.42     0  02:34        1.89
  YS02163601           JUNCTION     0.37     2.02     8.42     0  02:34        1.99
  YS02164001           JUNCTION     0.30     1.94     8.40     0  02:34        1.91
  YSB1154              JUNCTION     0.30     1.96    11.02     0  02:29        1.95
  YSB1171              JUNCTION     0.47     1.95    10.85     0  02:29        1.95
  YSB1174              JUNCTION     0.27     1.82    10.92     0  02:29        1.81
  YSB6556              JUNCTION     0.21     1.80    10.97     0  02:29        1.79
  CC-1                 OUTFALL      0.00     0.00     0.00     0  00:00        0.00
  CC-2                 OUTFALL      0.00     0.00     0.00     0  00:00        0.00
  JK-1                 OUTFALL      0.00     0.00     0.00     0  00:00        0.00
  JK-2                 OUTFALL      0.00     0.00     0.00     0  00:00        0.00
  WSC                  OUTFALL      0.28     0.51     1.18     0  02:38        0.51
  CC-storage           STORAGE      0.67     1.51     7.01     0  02:46        1.51
  JK-storage           STORAGE      2.65     5.80     6.60     0  02:35        5.80
  XR-storage           STORAGE      7.55     8.66     6.66     0  06:00        8.66
  
  
  *******************
  Node Inflow Summary
  *******************
  
  -------------------------------------------------------------------------------------------------
                                  Maximum  Maximum                  Lateral       Total        Flow
                                  Lateral    Total  Time of Max      Inflow      Inflow     Balance
                                   Inflow   Inflow   Occurrence      Volume      Volume       Error
  Node                 Type           LPS      LPS  days hr:min    10^6 ltr    10^6 ltr     Percent
  -------------------------------------------------------------------------------------------------
  HS02004478           JUNCTION      0.00  2217.98     0  02:35           0        4.97      -0.020
  HS02004479           JUNCTION      0.00   402.98     0  02:32           0       0.578       0.115
  HS02004480           JUNCTION      0.00  2088.66     0  02:30           0         3.9       0.060
  HS02004770           JUNCTION    864.15   864.15     0  02:35         1.2        1.37       0.221
  HS02004777           JUNCTION      0.03   752.66     0  02:28    0.000648        1.19       0.454
  HS02004785           JUNCTION      0.15   759.49     0  02:28     0.00324        1.18       0.029
  HS02004788           JUNCTION    319.34   850.69     0  02:28       0.485        1.67       0.026
  HS02004792           JUNCTION   1041.14  1728.57     0  02:35        1.51        3.18       0.007
  HS02004799           JUNCTION    207.14  1735.56     0  02:29       0.279        3.33       0.074
  HS02004802           JUNCTION      0.00   535.02     0  02:35           0        1.11       0.364
  HS02004807           JUNCTION    257.30   533.64     0  02:35       0.342        1.16       0.348
  HS02004817           JUNCTION      0.60   402.83     0  02:29       0.013       0.884       1.897
  HS02004824           JUNCTION    340.43   633.23     0  02:29       0.594        1.02       0.052
  HS02004830           JUNCTION      0.15   636.67     0  02:29     0.00324       0.577       0.199
  HS02004837           JUNCTION    242.38   838.84     0  02:29       0.461        0.78       0.111
  HS02004842           JUNCTION      0.00   820.90     0  02:30           0       0.527       2.494
  HS02004848           JUNCTION    302.78  1034.82     0  02:30       0.532       0.943       0.002
  HS02004852           JUNCTION      0.00  1003.33     0  02:31           0       0.841       0.055
  HS02004856           JUNCTION    105.08  1073.79     0  02:31       0.141       0.982       0.158
  HS02004862           JUNCTION    140.55  1188.52     0  02:31        0.23        1.21      -0.050
  HS02004870           JUNCTION    140.25  1286.18     0  02:31       0.187         1.4       0.012
  HS02004876           JUNCTION    138.92  1274.55     0  02:31       0.193        1.59       0.058
  HS02004881           JUNCTION     75.45  1336.52     0  02:32      0.0989        1.69      -0.001
  HS02004901           JUNCTION    208.53   448.19     0  02:35       0.273       0.362       0.461
  WS02001211           JUNCTION      7.35   209.41     0  02:56       0.159        4.02       0.828
  WS02001212           JUNCTION      0.00   221.17     0  02:56           0        3.98       0.395
  WS02001213           JUNCTION      0.00   229.35     0  02:55           0        3.97       0.455
  WS02003059           JUNCTION      0.00   237.90     0  02:55           0        3.96       0.817
  WS02003060           JUNCTION     16.53  1460.28     0  02:36       0.357        10.8       0.141
  WS02003066           JUNCTION      0.00  1250.34     0  02:35           0        6.57       0.025
  WS02003067           JUNCTION      0.00  1250.78     0  02:35           0        6.57       0.071
  WS02003069           JUNCTION      0.32  1459.32     0  02:36     0.00691        10.8       0.148
  WS02003072           JUNCTION      0.00  1458.64     0  02:37           0        10.8       0.199
  WS02003073           JUNCTION      1.82  1460.54     0  02:37      0.0393        10.8       0.211
  WS02004138           JUNCTION      0.00   190.00     0  00:29           0        3.88       0.084
  WS02004139           JUNCTION      0.32   191.33     0  00:29     0.00693        3.89       0.689
  WS02004401           JUNCTION      0.00  1252.57     0  02:35           0        6.69       0.182
  WS02004402           JUNCTION      0.00  1253.26     0  02:35           0        6.68       0.172
  WS02004403           JUNCTION      0.00  1253.36     0  02:35           0        6.67       0.167
  WS02004404           JUNCTION      0.16  1253.62     0  02:35      0.0035        6.66       0.135
  WS02004405           JUNCTION      0.04  1252.72     0  02:35    0.000823        6.65       0.194
  WS02004406           JUNCTION      0.00  1252.52     0  02:35           0        6.64       0.334
  WS02004407           JUNCTION      0.00  1252.97     0  02:35           0        6.61       0.027
  WS02004409           JUNCTION      0.00  1250.70     0  02:35           0        6.61       0.057
  WS02004410           JUNCTION      0.00  1251.05     0  02:35           0        6.61       0.084
  WS02004411           JUNCTION      0.00  1251.27     0  02:35           0         6.6       0.102
  WS02004412           JUNCTION      0.00  1250.70     0  02:35           0        6.59       0.131
  WS02004413           JUNCTION      0.00  1250.78     0  02:35           0        6.59       0.223
  WS02006109           JUNCTION      1.23  1308.01     0  00:00      0.0266        6.51       0.179
  WS02006110           JUNCTION      0.00  1120.11     0  02:39           0        6.42      -0.542
  WS02006111           JUNCTION      0.00  1176.04     0  00:00           0        6.45      -0.594
  WS02006112           JUNCTION    170.05  2307.30     0  00:00       0.224        6.71       0.009
  WS02006113           JUNCTION      0.00  1120.30     0  02:39           0        6.41      -0.694
  WS02006115           JUNCTION      0.00  2152.75     0  00:00           0        6.69       0.074
  WS02006116           JUNCTION      0.00  1252.21     0  02:35           0        6.69       0.039
  WS02006228           JUNCTION      0.00  1243.70     0  02:35           0        6.47       0.107
  WS02006229           JUNCTION      0.00  2216.30     0  02:35           0        7.56       0.097
  WS02006230           JUNCTION     10.28   982.28     0  02:35       0.222        3.73       0.083
  WS02006231           JUNCTION      0.00   453.28     0  02:40           0        3.12      -0.085
  WS02006232           JUNCTION      0.00   453.40     0  02:39           0        3.12       0.210
  WS02006234           JUNCTION      0.00   453.13     0  02:29           0        3.11      -0.106
  WS02006235           JUNCTION      0.00   418.22     0  03:36           0        3.14       0.131
  WS02006238           JUNCTION      0.00   418.11     0  03:36           0        2.85      -0.059
  WS02006239           JUNCTION      0.00   418.08     0  03:36           0        2.84      -0.048
  WS02006240           JUNCTION      0.00   418.06     0  03:36           0        2.81      -0.006
  WS02006242           JUNCTION      0.00   418.05     0  03:36           0         2.8       0.060
  WS02006243           JUNCTION      0.00   418.03     0  03:36           0        2.58       0.013
  WS02006245           JUNCTION      0.00   418.01     0  03:36           0        2.57       0.165
  WS02006247           JUNCTION      0.00   417.99     0  03:36           0        2.56       0.016
  WS02006248           JUNCTION      0.00   417.93     0  03:36           0        2.64       0.029
  WS02006249           JUNCTION      0.00  1332.73     0  02:32           0        4.24       0.047
  WS02006251           JUNCTION      0.08  1360.36     0  02:32     0.00166        4.22      -0.026
  WS02006252           JUNCTION      0.00   400.00     0  02:40           0        2.52      -0.055
  WS02006253           JUNCTION     18.86  1357.99     0  02:32       0.024        1.72      -0.034
  WS02006256           JUNCTION      0.00   300.00     0  02:20           0       0.745      -0.020
  WS02006280           JUNCTION      0.00  2216.17     0  02:35           0        4.95       0.017
  WS02006284           JUNCTION      0.10  2215.60     0  02:35     0.00207        4.95       0.008
  WS02006287           JUNCTION      0.00  2216.88     0  02:34           0        4.95       0.017
  WSF200               JUNCTION      0.00  1250.57     0  02:35           0        6.56       0.015
  YS02001580           JUNCTION      0.00   122.06     0  02:28           0     0.00445       0.613
  YS02001583           JUNCTION      0.00   201.71     0  02:28           0      0.0153      -6.057
  YS02001586           JUNCTION    386.64   386.64     0  02:35        0.75       0.761       0.206
  YS02001590           JUNCTION      0.00   317.97     0  02:34           0       0.733      -0.006
  YS02001593           JUNCTION      0.00   317.98     0  02:34           0       0.733       0.024
  YS02001596           JUNCTION      0.00   317.97     0  02:34           0       0.733      -0.002
  YS02001600           JUNCTION      0.00   318.11     0  02:34           0       0.733       0.011
  YS02001601           JUNCTION    713.07  1030.44     0  02:35        1.11        1.84       0.056
  YS02001602           JUNCTION      0.00   529.78     0  02:28           0        1.44       0.056
  YS02001605           JUNCTION      0.00   529.28     0  02:28           0         1.4       0.069
  YS02001607           JUNCTION      0.00   528.51     0  02:28           0         1.4       0.178
  YS02001610           JUNCTION      0.00   536.34     0  02:28           0        1.39       0.202
  YS02001613           JUNCTION      0.00   542.37     0  02:28           0        1.32       0.159
  YS02001616           JUNCTION      0.00   552.13     0  02:28           0        1.32       0.064
  YS02001619           JUNCTION    683.61   926.31     0  02:28        1.18         2.5       0.018
  YS02001622           JUNCTION      0.00   938.49     0  02:28           0         2.5       0.015
  YS02001625           JUNCTION      0.00   945.84     0  02:28           0         2.5       0.420
  YS02001629           JUNCTION      0.00   947.04     0  02:28           0        2.34       0.031
  YS02001633           JUNCTION    532.72  1339.91     0  02:31        0.79        3.13       0.132
  YS02001641           JUNCTION      0.00  1337.88     0  02:31           0        3.12       0.104
  YS02001644           JUNCTION    474.28  1726.08     0  02:31       0.681         3.8       0.104
  YS02001647           JUNCTION      0.00  1727.84     0  02:31           0        3.79       0.015
  YS02001649           JUNCTION      0.00  2010.81     0  02:30           0        4.39       0.014
  YS02001652           JUNCTION      0.00   507.64     0  02:35           0       0.604      -0.162
  YS02001655           JUNCTION      0.15   507.64     0  02:35     0.00332       0.605       0.112
  YS02001658           JUNCTION      0.00   658.99     0  02:34           0       0.601      -0.029
  YS02001661           JUNCTION      0.00   449.16     0  02:35           0       0.601       0.055
  YS02001664           JUNCTION    449.85   449.85     0  02:35       0.601       0.601      -0.008
  YS02001745           JUNCTION    290.37   290.37     0  02:35       0.381       0.381       0.354
  YS02001748           JUNCTION      0.04   450.90     0  02:35    0.000972        0.38      -0.485
  YS02001751           JUNCTION      0.01   421.12     0  02:36    0.000238       0.385       0.207
  YS02001754           JUNCTION      0.26   354.29     0  02:36     0.00562       0.393      -0.394
  YS02001757           JUNCTION      0.00  2954.39     0  02:35           0        6.13       0.078
  YS02001759           JUNCTION    400.96  1018.88     0  02:34       0.521        1.34      -0.011
  YS02001762           JUNCTION      0.00   619.17     0  02:32           0       0.818       0.005
  YS02001765           JUNCTION      0.00   609.43     0  02:34           0       0.818       0.010
  YS02001767           JUNCTION      0.54   604.46     0  02:34      0.0116       0.818       0.025
  YS02001770           JUNCTION    580.72   602.57     0  02:32       0.808        0.85       0.001
  YS02001774           JUNCTION      0.00   259.76     0  02:32           0      0.0624       1.828
  YS02001779           JUNCTION      0.01   262.12     0  02:32    0.000108       0.019      -3.453
  YS02001783           JUNCTION      0.00  1148.77     0  02:35           0        2.33       0.010
  YS02001784           JUNCTION      1.06  1149.47     0  02:34      0.0229        2.35       0.030
  YS02001786           JUNCTION      0.06  1149.92     0  02:35     0.00122        2.35       0.028
  YS02001788           JUNCTION      0.07  1150.55     0  02:35     0.00153        2.36       0.010
  YS02001790           JUNCTION      0.15  1161.31     0  02:34     0.00335        2.36       0.004
  YS02001791           JUNCTION      0.00  1326.86     0  02:41           0        2.36      -0.002
  YS02001793           JUNCTION      0.00  1390.97     0  02:41           0        2.36      -0.071
  YS02001882           JUNCTION      0.00    41.25     0  02:29           0      0.0122       5.497
  YS02001884           JUNCTION      0.00    67.96     0  02:29           0      0.0479       5.788
  YS02001887           JUNCTION    425.95   425.95     0  02:35       0.558       0.592       0.788
  YS02001890           JUNCTION      0.00   425.47     0  02:34           0       0.551       0.951
  YS02001895           JUNCTION      0.00   425.86     0  02:35           0       0.545       0.238
  YS02001898           JUNCTION      0.00   426.21     0  02:34           0       0.544       0.111
  YS02001901           JUNCTION      0.00   427.57     0  02:35           0       0.546       0.608
  YS02001904           JUNCTION      0.00   426.23     0  02:35           0        0.55       0.530
  YS02001907           JUNCTION      0.00  1347.92     0  02:33           0        1.77       1.031
  YS02001910           JUNCTION      0.00   934.29     0  02:33           0        1.23       0.590
  YS02001915           JUNCTION    518.34   933.45     0  02:33       0.765        1.26       0.140
  YS02001918           JUNCTION      0.00   446.74     0  02:33           0        0.52       0.023
  YS02001920           JUNCTION      2.87   446.30     0  02:33       0.062       0.504       0.205
  YS02001923           JUNCTION      0.04   402.74     0  02:33    0.000814       0.428      -0.016
  YS02001926           JUNCTION      0.05   431.41     0  02:32     0.00113       0.411      -0.078
  YS02001929           JUNCTION    251.49   286.23     0  02:32       0.402       0.402      -0.201
  YS02006553           JUNCTION      0.00   807.91     0  02:42           0        1.57       0.766
  YS02006556           JUNCTION      0.00   808.54     0  02:42           0        1.57       0.526
  YS02006558           JUNCTION    588.85  1149.92     0  02:34       0.807        2.36       0.147
  YS02006561           JUNCTION      0.00  1148.35     0  02:35           0        2.33       0.004
  YS02163301           JUNCTION      0.00   911.82     0  02:30           0        2.34       0.083
  YS02163601           JUNCTION      0.11  1339.90     0  02:31     0.00238        3.12       0.177
  YS02164001           JUNCTION      0.00  1339.01     0  02:31           0        3.12       0.090
  YSB1154              JUNCTION    239.84   239.84     0  02:35       0.334       0.335       0.439
  YSB1171              JUNCTION      0.00   438.93     0  02:34           0       0.595       1.057
  YSB1174              JUNCTION    199.34   199.34     0  02:35       0.253       0.254       0.509
  YSB6556              JUNCTION      0.00   239.79     0  02:35           0       0.336       0.346
  CC-1                 OUTFALL       0.00   683.00     0  02:40           0        2.46       0.000
  CC-2                 OUTFALL       0.00   683.00     0  02:40           0        2.46       0.000
  JK-1                 OUTFALL       0.00  1000.00     0  02:20           0        1.23       0.000
  JK-2                 OUTFALL       0.00  1000.00     0  02:20           0        1.23       0.000
  WSC                  OUTFALL       0.00  1460.60     0  02:38           0        10.8       0.000
  CC-storage           STORAGE       0.00  2957.59     0  02:34           0        8.35      -0.480
  JK-storage           STORAGE       0.00  1687.26     0  02:41           0        2.51     -27.805
  XR-storage           STORAGE     200.00   200.00     0  00:00        4.32        4.92       0.001
  
  
  **********************
  Node Surcharge Summary
  **********************
  
  Surcharging occurs when water rises above the top of the highest conduit.
  ---------------------------------------------------------------------
                                               Max. Height   Min. Depth
                                   Hours       Above Crown    Below Rim
  Node                 Type      Surcharged         Meters       Meters
  ---------------------------------------------------------------------
  HS02004478           JUNCTION        0.20          0.646        0.294
  HS02004479           JUNCTION        0.30          0.897        0.153
  HS02004480           JUNCTION        0.33          0.962        0.138
  HS02004770           JUNCTION        0.26          0.720        0.000
  HS02004777           JUNCTION        0.26          0.780        0.000
  HS02004785           JUNCTION        0.22          0.790        0.000
  HS02004788           JUNCTION        0.21          0.720        0.000
  HS02004792           JUNCTION        0.30          0.900        0.000
  HS02004799           JUNCTION        0.39          1.060        0.000
  HS02004802           JUNCTION        0.33          1.063        0.147
  HS02004807           JUNCTION        0.32          1.220        0.000
  HS02004817           JUNCTION        0.66          1.703        0.037
  HS02004824           JUNCTION        0.23          1.294        0.016
  HS02004830           JUNCTION        0.20          1.310        0.020
  HS02004837           JUNCTION        0.17          1.259        0.081
  HS02004842           JUNCTION        0.27          1.520        0.000
  HS02004848           JUNCTION        0.13          1.356        0.014
  HS02004852           JUNCTION        0.15          1.376        0.044
  HS02004856           JUNCTION        0.14          1.231        0.069
  HS02004862           JUNCTION        0.17          1.300        0.000
  HS02004870           JUNCTION        0.19          1.178        0.222
  HS02004876           JUNCTION        0.24          1.208        0.352
  HS02004881           JUNCTION        0.23          1.436        0.014
  HS02004901           JUNCTION        0.26          0.720        0.000
  WS02004401           JUNCTION        0.89          0.825        0.835
  WS02004402           JUNCTION        0.92          0.775        0.965
  WS02004403           JUNCTION        0.92          0.747        1.283
  WS02004404           JUNCTION        1.11          0.762        2.018
  WS02004405           JUNCTION        1.06          0.689        2.111
  WS02004406           JUNCTION        1.02          0.492        1.958
  WS02004409           JUNCTION        0.49          0.332        2.028
  WS02004410           JUNCTION        0.48          0.247        2.293
  WS02004411           JUNCTION        0.46          0.170        2.360
  WS02004412           JUNCTION        0.41          0.079        2.231
  WS02004413           JUNCTION        0.71          0.129        2.071
  WS02006109           JUNCTION        1.72          1.820        0.000
  WS02006110           JUNCTION        1.42          1.440        0.410
  WS02006111           JUNCTION        0.62          0.833        1.037
  WS02006112           JUNCTION        1.50          1.680        0.000
  WS02006113           JUNCTION        0.64          0.942        0.988
  WS02006115           JUNCTION        0.84          0.925        1.325
  WS02006116           JUNCTION        0.85          0.870        1.420
  WS02006228           JUNCTION        1.72          2.200        0.000
  WS02006229           JUNCTION        0.48          1.046        0.024
  WS02006230           JUNCTION        1.16          1.570        0.000
  WS02006231           JUNCTION        1.39          1.480        0.050
  WS02006232           JUNCTION        1.46          1.480        0.000
  WS02006234           JUNCTION        1.39          1.240        0.000
  WS02006235           JUNCTION        1.40          1.264        0.026
  WS02006238           JUNCTION        1.41          1.267        0.163
  WS02006239           JUNCTION        1.39          1.099        0.191
  WS02006240           JUNCTION        1.38          0.956        0.434
  WS02006242           JUNCTION        1.38          0.820        0.000
  WS02006243           JUNCTION        1.35          0.759        0.011
  WS02006245           JUNCTION        1.35          0.592        0.258
  WS02006247           JUNCTION        1.35          0.521        0.239
  WS02006248           JUNCTION        1.33          0.380        0.000
  WS02006249           JUNCTION        1.34          0.390        0.000
  WS02006251           JUNCTION        1.30          1.180        0.000
  WS02006252           JUNCTION        1.32          1.100        0.000
  WS02006253           JUNCTION        1.31          2.427        0.053
  WS02006256           JUNCTION        4.93          2.050        0.000
  WS02006280           JUNCTION        0.40          0.699        0.081
  WS02006284           JUNCTION        0.35          0.671        0.129
  WS02006287           JUNCTION        0.28          0.731        0.159
  YS02001580           JUNCTION        0.23          0.450        0.000
  YS02001583           JUNCTION        0.23          0.500        0.000
  YS02001586           JUNCTION        0.35          0.510        0.000
  YS02001590           JUNCTION        0.40          0.750        0.000
  YS02001593           JUNCTION        0.40          0.726        0.114
  YS02001596           JUNCTION        0.48          0.959        0.111
  YS02001600           JUNCTION        0.57          1.190        0.000
  YS02001601           JUNCTION        0.81          1.440        0.000
  YS02001602           JUNCTION        0.73          1.270        0.000
  YS02001605           JUNCTION        0.70          1.180        0.000
  YS02001607           JUNCTION        0.37          0.651        0.029
  YS02001610           JUNCTION        0.39          0.680        0.000
  YS02001613           JUNCTION        0.37          0.683        0.017
  YS02001616           JUNCTION        0.34          0.610        0.000
  YS02001619           JUNCTION        0.33          0.610        0.000
  YS02001622           JUNCTION        0.33          0.620        0.000
  YS02001625           JUNCTION        0.45          0.780        0.000
  YS02001629           JUNCTION        0.30          0.470        0.000
  YS02001633           JUNCTION        0.47          0.969        0.091
  YS02001641           JUNCTION        0.42          0.943        0.157
  YS02001644           JUNCTION        0.40          0.920        0.000
  YS02001647           JUNCTION        0.24          0.713        0.187
  YS02001649           JUNCTION        0.32          0.865        0.185
  YS02001652           JUNCTION        0.20          0.684        0.446
  YS02001655           JUNCTION        0.10          0.617        0.583
  YS02001658           JUNCTION        0.01          0.416        0.884
  YS02001751           JUNCTION        0.04          0.211        0.989
  YS02001754           JUNCTION        0.14          0.365        0.785
  YS02001757           JUNCTION        0.35          0.793        0.417
  YS02001759           JUNCTION        0.28          0.746        0.464
  YS02001762           JUNCTION        0.26          0.747        0.403
  YS02001765           JUNCTION        0.23          0.719        0.381
  YS02001767           JUNCTION        0.22          0.748        0.282
  YS02001770           JUNCTION        0.21          0.811        0.109
  YS02001774           JUNCTION        0.25          0.929        0.121
  YS02001779           JUNCTION        0.13          0.680        0.000
  YS02001783           JUNCTION        0.28          1.026        0.574
  YS02001784           JUNCTION        0.26          1.021        0.469
  YS02001786           JUNCTION        0.18          0.904        0.526
  YS02001788           JUNCTION        0.08          1.043        0.437
  YS02001790           JUNCTION        0.09          0.927        0.230
  YS02001791           JUNCTION        0.09          0.756        1.164
  YS02001793           JUNCTION        0.14          0.932        1.668
  YS02001882           JUNCTION        0.24          0.682        0.148
  YS02001884           JUNCTION        0.25          0.702        0.168
  YS02001887           JUNCTION        0.28          0.755        0.195
  YS02001890           JUNCTION        0.29          0.760        0.000
  YS02001895           JUNCTION        0.23          0.570        0.180
  YS02001898           JUNCTION        0.22          0.545        0.195
  YS02001901           JUNCTION        0.26          0.684        0.186
  YS02001904           JUNCTION        0.26          0.642        0.208
  YS02001907           JUNCTION        0.43          0.950        0.000
  YS02001910           JUNCTION        0.30          0.977        0.123
  YS02001915           JUNCTION        0.24          0.927        0.073
  YS02001918           JUNCTION        0.17          0.810        0.000
  YS02001920           JUNCTION        0.18          1.096        0.044
  YS02001923           JUNCTION        0.01          0.805        0.015
  YS02001926           JUNCTION        0.01          0.900        0.000
  YS02001929           JUNCTION        0.01          0.780        0.000
  YS02006553           JUNCTION        0.44          1.044        0.146
  YS02006556           JUNCTION        0.36          1.073        0.277
  YS02006558           JUNCTION        0.36          1.085        0.315
  YS02006561           JUNCTION        0.15          0.558        0.592
  YS02163301           JUNCTION        0.45          0.903        0.127
  YS02163601           JUNCTION        0.49          1.023        0.057
  YS02164001           JUNCTION        0.42          0.941        0.159
  YSB1154              JUNCTION        0.45          1.258        0.142
  YSB1171              JUNCTION        0.46          1.100        0.000
  YSB1174              JUNCTION        0.42          1.116        0.134
  YSB6556              JUNCTION        0.37          1.100        0.000
  
  
  *********************
  Node Flooding Summary
  *********************
  
  Flooding refers to all water that overflows a node, whether it ponds or not.
  --------------------------------------------------------------------------
                                                             Total   Maximum
                                 Maximum   Time of Max       Flood    Ponded
                        Hours       Rate    Occurrence      Volume     Depth
  Node                 Flooded       LPS   days hr:min    10^6 ltr    Meters
  --------------------------------------------------------------------------
  HS02004770              0.14    257.25      0  02:35       0.091     0.000
  HS02004777              0.01     28.99      0  02:28       0.000     0.000
  HS02004785              0.01     97.86      0  02:28       0.000     0.000
  HS02004788              0.01    247.19      0  02:28       0.001     0.000
  HS02004792              0.12    557.65      0  02:35       0.126     0.000
  HS02004799              0.01     67.66      0  02:32       0.001     0.000
  HS02004807              0.01     15.84      0  02:32       0.000     0.000
  HS02004842              0.01    108.70      0  02:32       0.001     0.000
  HS02004862              0.01    117.73      0  02:31       0.000     0.000
  HS02004901              0.18    448.13      0  02:35       0.191     0.000
  WS02006109              0.17    163.56      0  02:35       0.053     0.000
  WS02006112              0.01   1153.65      0  00:00       0.035     0.000
  WS02006228              0.01      0.70      0  02:32       0.000     0.000
  WS02006230              0.35    529.63      0  02:35       0.394     0.000
  WS02006232              0.09      0.75      0  02:37       0.000     0.000
  WS02006234              0.41    128.31      0  02:29       0.126     0.000
  WS02006242              0.46    137.32      0  02:41       0.202     0.000
  WS02006248              0.56    338.49      0  02:48       0.558     0.000
  WS02006249              1.23   1298.38      0  02:32       2.093     0.000
  WS02006251              0.01     88.11      0  02:21       0.000     0.000
  WS02006252              0.12    229.09      0  02:32       0.032     0.000
  WS02006256              0.70    280.37      0  02:40       0.312     0.000
  YS02001580              0.01    102.83      0  02:28       0.000     0.000
  YS02001583              0.01    123.34      0  02:28       0.000     0.000
  YS02001586              0.13     87.91      0  02:28       0.015     0.000
  YS02001590              0.01      3.12      0  02:28       0.000     0.000
  YS02001600              0.01      1.45      0  02:28       0.000     0.000
  YS02001601              0.30    632.29      0  02:35       0.400     0.000
  YS02001602              0.22     62.03      0  02:41       0.041     0.000
  YS02001605              0.01      5.09      0  02:28       0.000     0.000
  YS02001610              0.17    189.31      0  02:35       0.070     0.000
  YS02001616              0.01     11.76      0  02:28       0.000     0.000
  YS02001619              0.01      8.50      0  02:28       0.000     0.000
  YS02001622              0.01    136.96      0  02:28       0.000     0.000
  YS02001625              0.16    566.07      0  02:35       0.147     0.000
  YS02001629              0.01    191.33      0  02:28       0.001     0.000
  YS02001644              0.01     18.02      0  02:34       0.000     0.000
  YS02001779              0.01    185.23      0  02:32       0.001     0.000
  YS02001890              0.01     24.37      0  02:32       0.000     0.000
  YS02001907              0.14    762.32      0  02:33       0.192     0.000
  YS02001918              0.01     93.64      0  02:32       0.001     0.000
  YS02001926              0.01     61.49      0  02:32       0.000     0.000
  YS02001929              0.01    179.73      0  02:32       0.000     0.000
  YSB1171                 0.07    133.71      0  02:35       0.018     0.000
  YSB6556                 0.01     12.92      0  02:29       0.000     0.000
  JK-storage              0.08   1047.78      0  02:35       0.263     0.000
  
  
  **********************
  Storage Volume Summary
  **********************
  
  --------------------------------------------------------------------------------------------------
                         Average     Avg  Evap Exfil       Maximum     Max    Time of Max    Maximum
                          Volume    Pcnt  Pcnt  Pcnt        Volume    Pcnt     Occurrence    Outflow
  Storage Unit           1000 m3    Full  Loss  Loss       1000 m3    Full    days hr:min        LPS
  --------------------------------------------------------------------------------------------------
  CC-storage               1.869      29     0     0         4.221      66       0  02:46    1766.00
  JK-storage               0.133      46     0     0         0.291     100       0  02:35    2300.00
  XR-storage               0.906      63     0     0         1.039      72       0  06:00     190.00
  
  
  ***********************
  Outfall Loading Summary
  ***********************
  
  -----------------------------------------------------------
                         Flow       Avg       Max       Total
                         Freq      Flow      Flow      Volume
  Outfall Node           Pcnt       LPS       LPS    10^6 ltr
  -----------------------------------------------------------
  CC-1                  16.78    683.00    683.00       2.462
  CC-2                  16.78    683.00    683.00       2.462
  JK-1                   8.94    702.96   1000.00       1.226
  JK-2                   8.94    702.96   1000.00       1.226
  WSC                   99.99    531.26   1460.60      10.808
  -----------------------------------------------------------
  System                30.28   3303.18   1460.60      18.185
  
  
  ********************
  Link Flow Summary
  ********************
  
  -----------------------------------------------------------------------------
                                 Maximum  Time of Max   Maximum    Max/    Max/
                                  |Flow|   Occurrence   |Veloc|    Full    Full
  Link                 Type          LPS  days hr:min     m/sec    Flow   Depth
  -----------------------------------------------------------------------------
  1                    CONDUIT   1460.60     0  02:38      3.67    0.51    0.51
  HS02004478WS02006287 CONDUIT   2216.88     0  02:34      2.56    0.62    1.00
  HS02004479HS02004480 CONDUIT    402.69     0  02:31      0.58    0.39    1.00
  HS02004480HS02004478 CONDUIT   2087.00     0  02:30      2.98    8.79    1.00
  HS02004770HS02004777 CONDUIT    752.63     0  02:28      1.08    1.38    1.00
  HS02004777HS02004785 CONDUIT    759.34     0  02:28      1.13    0.93    1.00
  HS02004785HS02004788 CONDUIT    631.99     0  02:28      1.36    4.77    1.00
  HS02004788HS02004792 CONDUIT    820.90     0  02:39      1.48    0.54    1.00
  HS02004792HS02004799 CONDUIT   1572.43     0  02:29      2.25    0.96    1.00
  HS02004799HS02004480 CONDUIT   1733.95     0  02:29      2.48    2.19    1.00
  HS02004802HS02004478 CONDUIT    535.96     0  02:35      0.77    0.47    1.00
  HS02004807HS02004802 CONDUIT    535.02     0  02:35      0.76    1.02    1.00
  HS02004817HS02004807 CONDUIT    402.23     0  02:29      0.57    0.24    1.00
  HS02004817HS02004824 CONDUIT    401.27     0  02:29      0.57    0.18    1.00
  HS02004824HS02004830 CONDUIT    636.52     0  02:29      0.93    0.83    1.00
  HS02004830HS02004837 CONDUIT    652.17     0  02:29      1.02    0.65    1.00
  HS02004837HS02004842 CONDUIT    820.90     0  02:30      1.17    0.49    1.00
  HS02004842HS02004848 CONDUIT    820.59     0  02:30      1.31    0.48    1.00
  HS02004848HS02004852 CONDUIT   1003.33     0  02:31      1.60    1.13    1.00
  HS02004852HS02004856 CONDUIT    980.70     0  02:31      1.46    1.12    1.00
  HS02004856HS02004862 CONDUIT   1071.49     0  02:31      1.70    1.07    1.00
  HS02004862HS02004870 CONDUIT   1162.36     0  02:31      1.94    1.26    1.00
  HS02004870HS02004876 CONDUIT   1156.42     0  02:31      1.89    0.77    1.00
  HS02004876HS02004881 CONDUIT   1266.39     0  02:32      2.53   13.47    1.00
  HS02004881HS02006253 CONDUIT   1339.90     0  02:32      2.76    0.26    1.00
  HS02004901HS02004770 CONDUIT    257.90     0  02:37      0.37    0.97    1.00
  WS02001211WS02001212 CONDUIT    221.17     0  02:56      0.54    0.17    0.68
  WS02001212WS02001213 CONDUIT    229.35     0  02:55      1.04    0.35    0.55
  WS02001213WS02003059 CONDUIT    237.90     0  02:55      0.47    0.39    0.88
  WS02003059WS02003060 CONDUIT    247.56     0  02:55      0.67    0.16    0.80
  WS02003060WS02003069 CONDUIT   1459.00     0  02:36      2.07    0.57    0.60
  WS02003066WSF200     CONDUIT   1250.57     0  02:35      3.28    0.21    0.38
  WS02003067WS02003066 CONDUIT   1250.34     0  02:35      1.95    0.40    0.55
  WS02003069WS02003072 CONDUIT   1458.64     0  02:37      1.87    0.70    0.65
  WS02003072WS02003073 CONDUIT   1458.72     0  02:37      2.03    3.15    0.61
  WS02004138WS02004139 CONDUIT    191.01     0  00:29      2.14    0.04    0.41
  WS02004139WS02001211 CONDUIT    202.06     0  02:56      0.53    0.26    0.60
  WS02004401WS02004402 CONDUIT   1253.26     0  02:35      2.07    1.50    1.00
  WS02004402WS02004403 CONDUIT   1253.36     0  02:35      1.84    1.80    1.00
  WS02004403WS02004404 CONDUIT   1253.45     0  02:35      1.66    0.91    1.00
  WS02004404WS02004405 CONDUIT   1252.68     0  02:35      1.85   12.27    1.00
  WS02004405WS02004406 CONDUIT   1252.52     0  02:35      1.73    2.47    1.00
  WS02004406WS02004407 CONDUIT   1252.97     0  02:35      1.80    0.56    0.92
  WS02004407WS02004409 CONDUIT   1250.70     0  02:35      1.86    0.44    0.92
  WS02004409WS02004410 CONDUIT   1251.05     0  02:35      1.59    1.62    1.00
  WS02004410WS02004411 CONDUIT   1251.27     0  02:35      1.59    1.71    1.00
  WS02004411WS02004412 CONDUIT   1250.70     0  02:35      1.59    1.78    1.00
  WS02004412WS02004413 CONDUIT   1250.78     0  02:35      1.59    0.84    1.00
  WS02004413WS02003067 CONDUIT   1250.78     0  02:35      1.95    0.54    0.76
  WS02006109WS02006110 CONDUIT   1306.78     0  00:00      3.15    2.51    1.00
  WS02006110WS02006113 CONDUIT   1120.30     0  02:39      2.23    1.02    1.00
  WS02006111WS02006112 CONDUIT   2307.30     0  00:00      9.18    1.10    1.00
  WS02006112WS02006115 CONDUIT   2152.75     0  00:00      2.85    1.27    1.00
  WS02006113WS02006111 CONDUIT   1176.04     0  00:00      2.61    1.41    1.00
  WS02006115WS02006116 CONDUIT   1252.21     0  02:35      1.81    1.61    1.00
  WS02006116WS02004401 CONDUIT   1252.57     0  02:35      2.21    1.73    1.00
  WS02006228WS02006109 CONDUIT   1243.80     0  02:35      2.47    5.43    1.00
  WS02006229WS02006228 CONDUIT   1243.70     0  02:35      2.47    4.12    1.00
  WS02006230WS02006229 CONDUIT    972.00     0  02:35      2.53   21.63    1.00
  WS02006231WS02006230 CONDUIT    453.28     0  02:40      1.30    6.88    1.00
  WS02006232WS02006231 CONDUIT    453.40     0  02:39      1.18    0.95    1.00
  WS02006234WS02006232 CONDUIT    453.13     0  02:29      1.18    0.92    1.00
  WS02006235WS02006234 CONDUIT    418.33     0  03:36      1.09    4.41    1.00
  WS02006238WS02006235 CONDUIT    418.21     0  03:36      1.33    0.93    1.00
  WS02006239WS02006238 CONDUIT    418.11     0  03:36      1.09    1.34    1.00
  WS02006240WS02006239 CONDUIT    418.08     0  03:36      1.09    1.32    1.00
  WS02006242WS02006240 CONDUIT    418.06     0  03:36      1.09    1.66    1.00
  WS02006243WS02006242 CONDUIT    418.05     0  03:36      1.13    0.89    1.00
  WS02006245WS02006243 CONDUIT    418.03     0  03:36      1.13    1.24    1.00
  WS02006247WS02006245 CONDUIT    418.01     0  03:36      1.09    3.31    1.00
  WS02006248WS02006247 CONDUIT    417.99     0  03:36      1.12    0.91    1.00
  WS02006249WS02006248 CONDUIT    417.93     0  03:36      1.09    2.29    1.00
  WS02006251WS02006249 CONDUIT   1332.73     0  02:32      3.46    3.84    1.00
  WS02006252WS02006251 CONDUIT    405.99     0  02:49      3.90    1.49    1.00
  WS02006253WS02006251 CONDUIT   1360.28     0  02:32      3.53    4.08    1.00
  WS02006256WS02006235 CONDUIT    287.90     0  05:01      4.17    3.05    1.00
  WS02006280WS02006229 CONDUIT   2216.30     0  02:35      4.56    0.47    1.00
  WS02006284WS02006280 CONDUIT   2216.17     0  02:35      3.01    0.93    1.00
  WS02006287WS02006284 CONDUIT   2215.50     0  02:35      2.82    1.03    1.00
  WSF200WS02003060     CONDUIT   1251.05     0  02:35      2.36    0.28    0.49
  YS02001580YS02001583 CONDUIT    122.06     0  02:28      0.76    0.47    1.00
  YS02001583YS02001586 CONDUIT    171.72     0  02:28      0.76    0.26    1.00
  YS02001586YS02001590 CONDUIT    317.97     0  02:34      1.24    0.56    1.00
  YS02001590YS02001593 CONDUIT    317.98     0  02:34      1.12    2.00    1.00
  YS02001593YS02001596 CONDUIT    317.97     0  02:34      1.69    0.50    1.00
  YS02001596YS02001600 CONDUIT    318.11     0  02:34      1.21    0.62    1.00
  YS02001600YS02001601 CONDUIT    317.89     0  02:34      1.12    0.55    1.00
  YS02001601YS02001602 CONDUIT    529.78     0  02:28      1.87    1.91    1.00
  YS02001602YS02001605 CONDUIT    529.28     0  02:28      1.87   11.20    1.00
  YS02001605YS02001607 CONDUIT    528.51     0  02:28      1.87    2.90    1.00
  YS02001607YS02001610 CONDUIT    536.34     0  02:28      0.68    0.51    1.00
  YS02001610YS02001613 CONDUIT    542.37     0  02:28      0.69    0.63    1.00
  YS02001613YS02001616 CONDUIT    552.13     0  02:28      0.71    0.47    1.00
  YS02001616YS02001619 CONDUIT    513.77     0  02:28      0.68    0.89    1.00
  YS02001619YS02001622 CONDUIT    938.49     0  02:28      1.21    1.38    1.00
  YS02001622YS02001625 CONDUIT    945.84     0  02:28      1.20    0.50    1.00
  YS02001625YS02001629 CONDUIT    947.04     0  02:28      1.21    0.45    1.00
  YS02001629YS02163301 CONDUIT    911.82     0  02:30      1.16    1.12    1.00
  YS02001633YS02163601 CONDUIT   1339.79     0  02:31      1.71    1.41    1.00
  YS02001641YS02001644 CONDUIT   1338.49     0  02:30      1.70    4.33    1.00
  YS02001644YS02001647 CONDUIT   1727.84     0  02:31      2.22    1.01    1.00
  YS02001647YS02001649 CONDUIT   1732.01     0  02:31      2.31    0.91    1.00
  YS02001649YS02001757 CONDUIT   1960.71     0  02:30      2.52    1.19    1.00
  YS02001652YS02001649 CONDUIT    507.26     0  02:35      0.69    0.25    1.00
  YS02001655YS02001652 CONDUIT    507.64     0  02:35      1.37    0.25    1.00
  YS02001658YS02001655 CONDUIT    507.48     0  02:35      1.94    0.22    1.00
  YS02001661YS02001658 CONDUIT    658.99     0  02:34      2.26    0.26    0.83
  YS02001664YS02001661 CONDUIT    449.16     0  02:35      2.16    0.14    0.50
  YS02001745YS02001748 CONDUIT    450.85     0  02:35      2.11    0.17    0.64
  YS02001748YS02001751 CONDUIT    421.11     0  02:36      1.71    0.21    0.98
  YS02001751YS02001754 CONDUIT    354.03     0  02:36      1.46    0.17    1.00
  YS02001754YS02001757 CONDUIT    356.03     0  02:36      0.49    0.14    1.00
  YS02001757CaochengTiaoxuchi CONDUIT   2957.59     0  02:34      3.77    1.28    1.00
  YS02001759YS02001757 CONDUIT   1022.76     0  02:34      1.30    0.73    1.00
  YS02001762YS02001759 CONDUIT    629.95     0  02:32      0.80    0.73    1.00
  YS02001765YS02001762 CONDUIT    619.17     0  02:32      0.79    0.58    1.00
  YS02001767YS02001765 CONDUIT    609.43     0  02:34      0.81    0.77    1.00
  YS02001770YS02001767 CONDUIT    603.92     0  02:34      0.78    2.39    1.00
  YS02001774YS02001770 CONDUIT    259.76     0  02:32      0.33    0.17    1.00
  YS02001779YS02001774 CONDUIT    262.11     0  02:32      0.34    0.13    1.00
  YS02001783YS02001784 CONDUIT   1148.41     0  02:34      2.28    1.58    1.00
  YS02001784YS02001785 CONDUIT   1149.86     0  02:35      2.29    2.68    1.00
  YS02001786YS02001788 CONDUIT   1150.48     0  02:35      2.46    2.22    1.00
  YS02001788YS02001790 CONDUIT   1161.16     0  02:34      2.70    0.86    1.00
  YS02001790YS02001791 CONDUIT   1326.86     0  02:41      3.42    1.44    1.00
  YS02001791YS02001793 CONDUIT   1390.97     0  02:41      6.71    0.60    1.00
  YS02001793JiankangQianchi CONDUIT   1687.26     0  02:41     21.40    0.13    1.00
  YS02001882YS02001884 CONDUIT     41.25     0  02:29      0.05    0.05    1.00
  YS02001884YS02001887 CONDUIT     67.96     0  02:29      0.09    0.09    1.00
  YS02001887YS02001890 CONDUIT    425.47     0  02:34      0.54    0.73    1.00
  YS02001890YS02001895 CONDUIT    425.86     0  02:35      0.54    0.20    1.00
  YS02001895YS02001898 CONDUIT    426.21     0  02:34      0.54    0.74    1.00
  YS02001898YS02001901 CONDUIT    427.57     0  02:35      0.54    0.28    1.00
  YS02001901YS02001904 CONDUIT    426.23     0  02:35      0.54    0.66    1.00
  YS02001904YS02001907 CONDUIT    427.99     0  02:35      0.54    0.15    1.00
  YS02001907YS02006553 CONDUIT    807.91     0  02:42      0.90    0.95    1.00
  YS02001910YS02001907 CONDUIT    934.41     0  02:33      1.19    0.53    1.00
  YS02001915YS02001910 CONDUIT    934.29     0  02:33      1.19    0.46    1.00
  YS02001918YS02001915 CONDUIT    447.89     0  02:33      0.59    0.25    1.00
  YS02001920YS02001918 CONDUIT    446.74     0  02:33      0.63    0.43    1.00
  YS02001923YS02001920 CONDUIT    443.43     0  02:33      0.70    0.20    1.00
  YS02001926YS02001923 CONDUIT    402.70     0  02:33      0.95    0.58    1.00
  YS02001929YS02001926 CONDUIT    399.20     0  02:33      1.10    0.19    1.00
  YS02006553YS02006556 CONDUIT    808.54     0  02:42      1.03    0.69    1.00
  YS02006556YS02006558 CONDUIT    810.50     0  02:42      1.03    0.64    1.00
  YS02006558YS02006561 CONDUIT   1148.35     0  02:35      4.06    2.54    1.00
  YS02006561YS02001783 CONDUIT   1148.77     0  02:35      2.29    0.59    1.00
  YS02163301YS02001633 CONDUIT    911.80     0  02:30      1.16    0.86    1.00
  YS02163601YS02164001 CONDUIT   1339.01     0  02:31      1.70    1.19    1.00
  YS02164001YS02001641 CONDUIT   1337.88     0  02:31      1.70    1.83    1.00
  YSB1154YSB6556       CONDUIT    239.79     0  02:35      0.62    0.43    1.00
  YSB1171HS02004479    CONDUIT    402.98     0  02:32      0.80    0.27    1.00
  YSB1174YSB1171       CONDUIT    199.52     0  02:34      0.52    0.31    1.00
  YSB6556YSB1171       CONDUIT    240.02     0  02:34      0.62    0.25    1.00
  CC-R1                PUMP       683.00     0  02:40              1.00
  CC-R2                PUMP       683.00     0  02:40              1.00
  CC-S1                PUMP       200.00     0  00:40              1.00
  CC-S2                PUMP       200.00     0  02:40              1.00
  JK-R1                PUMP      1000.00     0  02:20              1.00
  JK-R2                PUMP      1000.00     0  02:20              1.00
  JK-S                 PUMP       300.00     0  02:20              1.00
  XR-1                 PUMP        95.00     0  00:10              1.00
  XR-2                 PUMP        95.00     0  00:29              1.00
  XR-3                 PUMP         0.00     0  00:00              0.00
  XR-4                 PUMP         0.00     0  00:00              0.00
  
  
  ***************************
  Flow Classification Summary
  ***************************
  
  -------------------------------------------------------------------------------------
                      Adjusted    ---------- Fraction of Time in Flow Class ---------- 
                       /Actual         Up    Down  Sub   Sup   Up    Down  Norm  Inlet 
  Conduit               Length    Dry  Dry   Dry   Crit  Crit  Crit  Crit  Ltd   Ctrl  
  -------------------------------------------------------------------------------------
  1                       1.00   0.00  0.00  0.00  0.00  1.00  0.00  0.00  0.37  0.00
  HS02004478WS02006287    1.00   0.32  0.00  0.00  0.46  0.22  0.00  0.00  0.53  0.00
  HS02004479HS02004480    1.00   0.01  0.00  0.00  0.99  0.00  0.00  0.00  0.18  0.00
  HS02004480HS02004478    1.00   0.19  0.00  0.00  0.34  0.00  0.00  0.47  0.00  0.00
  HS02004770HS02004777    1.00   0.00  0.16  0.00  0.84  0.00  0.00  0.00  0.07  0.00
  HS02004777HS02004785    1.00   0.00  0.00  0.00  1.00  0.00  0.00  0.00  0.23  0.00
  HS02004785HS02004788    1.00   0.00  0.00  0.00  1.00  0.00  0.00  0.00  0.00  0.00
  HS02004788HS02004792    1.00   0.00  0.00  0.00  1.00  0.00  0.00  0.00  0.92  0.00
  HS02004792HS02004799    1.00   0.00  0.00  0.00  1.00  0.00  0.00  0.00  0.89  0.00
  HS02004799HS02004480    1.00   0.00  0.01  0.00  0.67  0.00  0.32  0.00  0.00  0.00
  HS02004802HS02004478    1.00   0.19  0.04  0.00  0.77  0.00  0.00  0.00  0.03  0.00
  HS02004807HS02004802    1.00   0.17  0.00  0.00  0.78  0.00  0.00  0.06  0.01  0.00
  HS02004817HS02004807    1.00   0.00  0.17  0.00  0.83  0.00  0.00  0.00  0.01  0.00
  HS02004817HS02004824    1.00   0.00  0.00  0.00  1.00  0.00  0.00  0.00  0.86  0.00
  HS02004824HS02004830    1.00   0.00  0.00  0.00  1.00  0.00  0.00  0.00  0.01  0.00
  HS02004830HS02004837    1.00   0.00  0.00  0.00  1.00  0.00  0.00  0.00  0.91  0.00
  HS02004837HS02004842    1.00   0.00  0.00  0.00  1.00  0.00  0.00  0.00  0.14  0.00
  HS02004842HS02004848    1.00   0.00  0.17  0.00  0.83  0.00  0.00  0.00  0.50  0.00
  HS02004848HS02004852    1.00   0.17  0.00  0.00  0.83  0.00  0.00  0.00  0.56  0.00
  HS02004852HS02004856    1.00   0.16  0.07  0.00  0.77  0.00  0.00  0.00  0.65  0.00
  HS02004856HS02004862    1.00   0.00  0.45  0.00  0.55  0.00  0.00  0.00  0.64  0.00
  HS02004862HS02004870    1.00   0.00  0.00  0.00  1.00  0.00  0.00  0.00  0.09  0.00
  HS02004870HS02004876    1.00   0.00  0.00  0.00  1.00  0.00  0.00  0.00  0.87  0.00
  HS02004876HS02004881    1.00   0.00  0.00  0.00  0.86  0.13  0.00  0.00  0.00  0.00
  HS02004881HS02006253    1.00   0.02  0.00  0.00  0.73  0.02  0.00  0.23  0.40  0.00
  HS02004901HS02004770    1.00   0.16  0.01  0.00  0.84  0.00  0.00  0.00  0.01  0.00
  WS02001211WS02001212    1.00   0.00  0.01  0.00  0.99  0.00  0.00  0.00  0.00  0.00
  WS02001212WS02001213    1.00   0.01  0.00  0.00  0.35  0.00  0.65  0.00  0.00  0.00
  WS02001213WS02003059    1.00   0.00  0.00  0.00  1.00  0.00  0.00  0.00  0.00  0.00
  WS02003059WS02003060    1.00   0.00  0.00  0.00  1.00  0.00  0.00  0.00  0.04  0.00
  WS02003060WS02003069    1.00   0.00  0.00  0.00  0.99  0.01  0.00  0.00  0.34  0.00
  WS02003066WSF200        1.00   0.12  0.00  0.00  0.00  0.88  0.00  0.00  0.57  0.00
  WS02003067WS02003066    1.00   0.03  0.07  0.00  0.90  0.00  0.00  0.00  0.00  0.00
  WS02003069WS02003072    1.00   0.00  0.00  0.00  1.00  0.00  0.00  0.00  0.46  0.00
  WS02003072WS02003073    1.00   0.00  0.00  0.00  0.00  0.00  0.00  1.00  0.00  0.00
  WS02004138WS02004139    1.00   0.01  0.00  0.00  0.99  0.00  0.00  0.00  0.97  0.00
  WS02004139WS02001211    1.00   0.00  0.00  0.00  1.00  0.00  0.00  0.00  0.01  0.00
  WS02004401WS02004402    1.00   0.00  0.00  0.00  1.00  0.00  0.00  0.00  0.00  0.00
  WS02004402WS02004403    1.00   0.00  0.00  0.00  1.00  0.00  0.00  0.00  0.00  0.00
  WS02004403WS02004404    1.00   0.00  0.00  0.00  1.00  0.00  0.00  0.00  0.00  0.00
  WS02004404WS02004405    1.00   0.00  0.00  0.00  1.00  0.00  0.00  0.00  0.00  0.00
  WS02004405WS02004406    1.00   0.00  0.00  0.00  1.00  0.00  0.00  0.00  0.00  0.00
  WS02004406WS02004407    1.00   0.00  0.00  0.00  1.00  0.00  0.00  0.00  0.01  0.00
  WS02004407WS02004409    1.00   0.00  0.00  0.00  1.00  0.00  0.00  0.00  0.90  0.00
  WS02004409WS02004410    1.00   0.00  0.00  0.00  1.00  0.00  0.00  0.00  0.05  0.00
  WS02004410WS02004411    1.00   0.00  0.00  0.00  1.00  0.00  0.00  0.00  0.03  0.00
  WS02004411WS02004412    1.00   0.00  0.00  0.00  1.00  0.00  0.00  0.00  0.01  0.00
  WS02004412WS02004413    1.00   0.00  0.00  0.00  1.00  0.00  0.00  0.00  0.02  0.00
  WS02004413WS02003067    1.00   0.00  0.02  0.00  0.00  0.00  0.97  0.00  0.00  0.00
  WS02006109WS02006110    1.00   0.00  0.00  0.00  1.00  0.00  0.00  0.00  0.00  0.00
  WS02006110WS02006113    1.00   0.00  0.00  0.00  1.00  0.00  0.00  0.00  0.00  0.00
  WS02006111WS02006112    1.00   0.00  0.00  0.00  1.00  0.00  0.00  0.00  0.82  0.00
  WS02006112WS02006115    1.00   0.00  0.00  0.00  1.00  0.00  0.00  0.00  0.00  0.00
  WS02006113WS02006111    1.00   0.00  0.00  0.00  0.14  0.86  0.00  0.00  0.14  0.00
  WS02006115WS02006116    1.00   0.00  0.00  0.00  1.00  0.00  0.00  0.00  0.00  0.00
  WS02006116WS02004401    1.00   0.00  0.00  0.00  1.00  0.00  0.00  0.00  0.00  0.00
  WS02006228WS02006109    1.00   0.00  0.00  0.00  1.00  0.00  0.00  0.00  0.00  0.00
  WS02006229WS02006228    1.00   0.00  0.00  0.00  1.00  0.00  0.00  0.00  0.00  0.00
  WS02006230WS02006229    1.00   0.00  0.00  0.00  1.00  0.00  0.00  0.00  0.02  0.00
  WS02006231WS02006230    1.00   0.00  0.00  0.00  0.33  0.00  0.67  0.00  0.00  0.00
  WS02006232WS02006231    1.00   0.00  0.00  0.00  0.98  0.00  0.01  0.00  0.01  0.00
  WS02006234WS02006232    1.00   0.00  0.00  0.00  1.00  0.00  0.00  0.00  0.11  0.00
  WS02006235WS02006234    1.00   0.06  0.00  0.00  0.90  0.00  0.04  0.00  0.00  0.00
  WS02006238WS02006235    1.00   0.05  0.01  0.00  0.94  0.01  0.00  0.00  0.00  0.00
  WS02006239WS02006238    1.00   0.05  0.00  0.00  0.94  0.00  0.00  0.01  0.09  0.00
  WS02006240WS02006239    1.00   0.05  0.00  0.00  0.84  0.00  0.00  0.11  0.01  0.00
  WS02006242WS02006240    1.00   0.02  0.03  0.00  0.94  0.00  0.01  0.00  0.00  0.00
  WS02006243WS02006242    1.00   0.01  0.00  0.00  0.94  0.00  0.00  0.04  0.32  0.00
  WS02006245WS02006243    1.00   0.01  0.00  0.00  0.92  0.00  0.00  0.07  0.00  0.00
  WS02006247WS02006245    1.00   0.01  0.00  0.00  0.95  0.00  0.00  0.04  0.00  0.00
  WS02006248WS02006247    1.00   0.01  0.00  0.00  0.97  0.00  0.00  0.03  0.34  0.00
  WS02006249WS02006248    1.00   0.00  0.01  0.00  0.81  0.00  0.18  0.00  0.00  0.00
  WS02006251WS02006249    1.00   0.00  0.00  0.00  1.00  0.00  0.00  0.00  0.46  0.00
  WS02006252WS02006251    1.00   0.03  0.24  0.00  0.22  0.00  0.51  0.00  0.00  0.00
  WS02006253WS02006251    1.00   0.01  0.01  0.00  0.97  0.00  0.00  0.00  0.00  0.00
  WS02006256WS02006235    1.00   0.06  0.00  0.00  0.93  0.01  0.00  0.00  0.00  0.00
  WS02006280WS02006229    1.00   0.20  0.00  0.00  0.09  0.04  0.00  0.67  0.01  0.00
  WS02006284WS02006280    1.00   0.19  0.00  0.00  0.08  0.00  0.00  0.72  0.00  0.00
  WS02006287WS02006284    1.00   0.09  0.24  0.00  0.32  0.35  0.00  0.00  0.59  0.00
  WSF200WS02003060        1.00   0.00  0.12  0.00  0.59  0.29  0.00  0.00  0.50  0.00
  YS02001580YS02001583    1.00   0.62  0.19  0.00  0.19  0.00  0.00  0.00  0.52  0.00
  YS02001583YS02001586    1.00   0.29  0.48  0.00  0.24  0.00  0.00  0.00  0.53  0.00
  YS02001586YS02001590    1.00   0.16  0.00  0.00  0.47  0.09  0.00  0.28  0.48  0.00
  YS02001590YS02001593    1.00   0.17  0.05  0.00  0.09  0.00  0.69  0.00  0.00  0.00
  YS02001593YS02001596    1.00   0.22  0.00  0.00  0.10  0.01  0.00  0.67  0.02  0.00
  YS02001596YS02001600    1.00   0.23  0.00  0.00  0.16  0.02  0.00  0.59  0.05  0.00
  YS02001600YS02001601    1.00   0.19  0.04  0.00  0.77  0.00  0.00  0.00  0.55  0.00
  YS02001601YS02001602    1.00   0.16  0.07  0.00  0.77  0.00  0.00  0.00  0.00  0.00
  YS02001602YS02001605    1.00   0.23  0.00  0.00  0.76  0.00  0.00  0.00  0.00  0.00
  YS02001605YS02001607    1.00   0.24  0.00  0.00  0.76  0.00  0.00  0.00  0.01  0.00
  YS02001607YS02001610    1.00   0.19  0.06  0.00  0.75  0.00  0.00  0.00  0.04  0.00
  YS02001610YS02001613    1.00   0.18  0.00  0.00  0.82  0.00  0.00  0.00  0.04  0.00
  YS02001613YS02001616    1.00   0.17  0.00  0.00  0.83  0.00  0.00  0.00  0.02  0.00
  YS02001616YS02001619    1.00   0.16  0.00  0.00  0.84  0.00  0.00  0.00  0.00  0.00
  YS02001619YS02001622    1.00   0.16  0.00  0.00  0.84  0.00  0.00  0.00  0.05  0.00
  YS02001622YS02001625    1.00   0.17  0.00  0.00  0.83  0.00  0.00  0.00  0.13  0.00
  YS02001625YS02001629    1.00   0.18  0.30  0.00  0.12  0.00  0.40  0.00  0.00  0.00
  YS02001629YS02163301    1.00   0.36  0.06  0.00  0.58  0.00  0.00  0.00  0.00  0.00
  YS02001633YS02163601    1.00   0.00  0.00  0.00  1.00  0.00  0.00  0.00  0.23  0.00
  YS02001641YS02001644    1.00   0.00  0.00  0.00  1.00  0.00  0.00  0.00  0.00  0.00
  YS02001644YS02001647    1.00   0.00  0.48  0.00  0.52  0.00  0.00  0.00  0.00  0.00
  YS02001647YS02001649    1.00   0.00  0.48  0.00  0.26  0.26  0.00  0.00  0.43  0.00
  YS02001649YS02001757    1.00   0.00  0.00  0.00  0.72  0.28  0.00  0.00  0.54  0.00
  YS02001652YS02001649    1.00   0.00  0.00  0.00  0.88  0.12  0.00  0.00  0.76  0.00
  YS02001655YS02001652    1.00   0.00  0.00  0.00  0.14  0.01  0.00  0.85  0.05  0.00
  YS02001658YS02001655    1.00   0.00  0.27  0.00  0.29  0.44  0.00  0.00  0.64  0.00
  YS02001661YS02001658    1.00   0.27  0.00  0.00  0.14  0.59  0.00  0.00  0.59  0.00
  YS02001664YS02001661    1.00   0.16  0.00  0.00  0.73  0.12  0.00  0.00  0.82  0.00
  YS02001745YS02001748    1.00   0.00  0.00  0.00  0.05  0.01  0.00  0.94  0.04  0.00
  YS02001748YS02001751    1.00   0.00  0.00  0.00  0.71  0.29  0.00  0.00  0.79  0.00
  YS02001751YS02001754    1.00   0.00  0.00  0.00  0.11  0.01  0.00  0.88  0.03  0.00
  YS02001754YS02001757    1.00   0.00  0.00  0.00  1.00  0.00  0.00  0.00  0.87  0.00
  YS02001757CaochengTiaoxuchi    1.00   0.00  0.00  0.00  1.00  0.00  0.00  0.00  0.74  0.00
  YS02001759YS02001757    1.00   0.00  0.00  0.00  1.00  0.00  0.00  0.00  0.62  0.00
  YS02001762YS02001759    1.00   0.00  0.00  0.00  1.00  0.00  0.00  0.00  0.12  0.00
  YS02001765YS02001762    1.00   0.00  0.00  0.00  1.00  0.00  0.00  0.00  0.75  0.00
  YS02001767YS02001765    1.00   0.00  0.00  0.00  1.00  0.00  0.00  0.00  0.00  0.00
  YS02001770YS02001767    1.00   0.00  0.00  0.00  1.00  0.00  0.00  0.00  0.00  0.00
  YS02001774YS02001770    1.00   0.00  0.23  0.00  0.77  0.00  0.00  0.00  0.09  0.00
  YS02001779YS02001774    1.00   0.00  0.00  0.00  1.00  0.00  0.00  0.00  0.80  0.00
  YS02001783YS02001784    1.00   0.00  0.50  0.00  0.50  0.00  0.00  0.00  0.42  0.00
  YS02001784YS02001785    1.00   0.00  0.00  0.00  1.00  0.00  0.00  0.00  0.30  0.00
  YS02001786YS02001788    1.00   0.00  0.00  0.00  0.76  0.23  0.00  0.00  0.00  0.00
  YS02001788YS02001790    1.00   0.00  0.00  0.00  0.55  0.45  0.00  0.00  0.83  0.00
  YS02001790YS02001791    1.00   0.00  0.00  0.00  0.03  0.97  0.00  0.00  0.15  0.00
  YS02001791YS02001793    1.00   0.00  0.00  0.00  0.03  0.97  0.00  0.00  0.02  0.00
  YS02001793JiankangQianchi    1.00   0.00  0.00  0.00  0.90  0.10  0.00  0.00  0.87  0.00
  YS02001882YS02001884    1.00   0.33  0.07  0.00  0.60  0.00  0.00  0.00  0.00  0.00
  YS02001884YS02001887    1.00   0.02  0.10  0.00  0.88  0.00  0.00  0.00  0.00  0.00
  YS02001887YS02001890    1.00   0.00  0.00  0.00  0.99  0.00  0.01  0.00  0.00  0.00
  YS02001890YS02001895    1.00   0.00  0.44  0.00  0.56  0.00  0.00  0.00  0.00  0.00
  YS02001895YS02001898    1.00   0.44  0.02  0.00  0.49  0.00  0.06  0.00  0.00  0.00
  YS02001898YS02001901    1.00   0.40  0.06  0.00  0.54  0.00  0.00  0.00  0.01  0.00
  YS02001901YS02001904    1.00   0.39  0.00  0.00  0.61  0.00  0.00  0.00  0.00  0.00
  YS02001904YS02001907    1.00   0.00  0.39  0.00  0.61  0.00  0.00  0.00  0.00  0.00
  YS02001907YS02006553    1.00   0.00  0.01  0.00  0.99  0.00  0.00  0.00  0.00  0.00
  YS02001910YS02001907    1.00   0.00  0.00  0.00  0.99  0.00  0.00  0.01  0.17  0.00
  YS02001915YS02001910    1.00   0.00  0.00  0.00  0.95  0.05  0.00  0.00  0.29  0.00
  YS02001918YS02001915    1.00   0.00  0.00  0.00  1.00  0.00  0.00  0.00  0.72  0.00
  YS02001920YS02001918    1.00   0.00  0.00  0.00  1.00  0.00  0.00  0.00  0.01  0.00
  YS02001923YS02001920    1.00   0.00  0.00  0.00  1.00  0.00  0.00  0.00  0.94  0.00
  YS02001926YS02001923    1.00   0.00  0.02  0.00  0.03  0.00  0.94  0.00  0.00  0.00
  YS02001929YS02001926    1.00   0.00  0.16  0.00  0.84  0.00  0.00  0.00  0.80  0.00
  YS02006553YS02006556    1.00   0.00  0.00  0.00  1.00  0.00  0.00  0.00  0.04  0.00
  YS02006556YS02006558    1.00   0.00  0.00  0.00  1.00  0.00  0.00  0.00  0.00  0.00
  YS02006558YS02006561    1.00   0.50  0.00  0.00  0.03  0.47  0.00  0.00  0.22  0.00
  YS02006561YS02001783    1.00   0.50  0.00  0.00  0.07  0.43  0.00  0.00  0.58  0.00
  YS02163301YS02001633    1.00   0.00  0.36  0.00  0.64  0.00  0.00  0.00  0.00  0.00
  YS02163601YS02164001    1.00   0.00  0.03  0.00  0.97  0.00  0.00  0.00  0.00  0.00
  YS02164001YS02001641    1.00   0.00  0.02  0.00  0.97  0.00  0.00  0.00  0.08  0.00
  YSB1154YSB6556          1.00   0.15  0.00  0.00  0.85  0.00  0.00  0.00  0.03  0.00
  YSB1171HS02004479       1.00   0.01  0.00  0.00  0.98  0.00  0.00  0.00  0.16  0.00
  YSB1174YSB1171          1.00   0.02  0.04  0.00  0.94  0.00  0.00  0.00  0.00  0.00
  YSB6556YSB1171          1.00   0.01  0.14  0.00  0.85  0.00  0.00  0.00  0.00  0.00
  
  
  *************************
  Conduit Surcharge Summary
  *************************
  
  ----------------------------------------------------------------------------
                                                           Hours        Hours 
                         --------- Hours Full --------   Above Full   Capacity
  Conduit                Both Ends  Upstream  Dnstream   Normal Flow   Limited
  ----------------------------------------------------------------------------
  HS02004478WS02006287        0.20      0.20      0.33      0.01         0.01
  HS02004479HS02004480        0.33      0.33      0.35      0.01         0.01
  HS02004480HS02004478        0.29      0.32      0.29      1.03         0.29
  HS02004770HS02004777        0.25      0.26      0.26      0.09         0.05
  HS02004777HS02004785        0.22      0.22      0.26      0.01         0.01
  HS02004785HS02004788        0.21      0.22      0.21      0.79         0.21
  HS02004788HS02004792        0.21      0.21      0.30      0.01         0.01
  HS02004792HS02004799        0.30      0.30      0.39      0.01         0.01
  HS02004799HS02004480        0.32      0.32      0.39      0.43         0.01
  HS02004802HS02004478        0.29      0.29      0.34      0.01         0.01
  HS02004807HS02004802        0.32      0.32      0.33      0.01         0.04
  HS02004817HS02004807        0.32      0.32      0.66      0.01         0.01
  HS02004817HS02004824        0.23      0.23      0.66      0.01         0.01
  HS02004824HS02004830        0.20      0.20      0.23      0.01         0.01
  HS02004830HS02004837        0.17      0.17      0.20      0.01         0.01
  HS02004837HS02004842        0.17      0.17      0.27      0.01         0.01
  HS02004842HS02004848        0.13      0.13      0.27      0.01         0.01
  HS02004848HS02004852        0.13      0.13      0.15      0.03         0.01
  HS02004852HS02004856        0.15      0.15      0.17      0.02         0.01
  HS02004856HS02004862        0.14      0.14      0.17      0.01         0.01
  HS02004862HS02004870        0.17      0.17      0.19      0.02         0.01
  HS02004870HS02004876        0.19      0.19      0.24      0.01         0.01
  HS02004876HS02004881        0.23      0.24      0.23      0.81         0.22
  HS02004881HS02006253        0.23      0.23      1.31      0.01         0.01
  HS02004901HS02004770        0.26      0.26      0.26      0.01         0.01
  WS02003072WS02003073        0.01      0.01      0.01      2.07         0.01
  WS02004401WS02004402        0.89      0.89      0.92      0.76         0.76
  WS02004402WS02004403        0.92      0.92      0.92      0.88         0.87
  WS02004403WS02004404        0.92      0.92      1.11      0.01         0.01
  WS02004404WS02004405        1.06      1.11      1.06      3.52         1.06
  WS02004405WS02004406        1.02      1.06      1.02      1.47         1.02
  WS02004406WS02004407        0.01      0.01      1.02      0.01         0.01
  WS02004407WS02004409        0.01      0.01      0.49      0.01         0.01
  WS02004409WS02004410        0.48      0.49      0.48      0.84         0.48
  WS02004410WS02004411        0.46      0.48      0.46      0.86         0.46
  WS02004411WS02004412        0.41      0.46      0.41      0.88         0.41
  WS02004412WS02004413        0.41      0.41      0.71      0.01         0.01
  WS02004413WS02003067        0.01      0.01      0.71      0.01         0.01
  WS02006109WS02006110        1.41      1.42      1.76      1.42         0.01
  WS02006110WS02006113        0.64      0.64      1.75      0.20         0.01
  WS02006111WS02006112        0.61      0.62      1.93      0.01         0.01
  WS02006112WS02006115        0.84      0.84      1.49      0.01         0.01
  WS02006113WS02006111        0.62      0.64      0.63      0.75         0.62
  WS02006115WS02006116        0.85      0.85      0.85      0.83         0.82
  WS02006116WS02004401        0.88      0.88      0.89      0.87         0.86
  WS02006228WS02006109        1.72      1.75      1.72      2.30         1.72
  WS02006229WS02006228        1.72      1.73      1.72      1.89         1.72
  WS02006230WS02006229        1.79      1.82      1.79      3.44         1.09
  WS02006231WS02006230        1.16      1.16      1.39      3.15         0.54
  WS02006232WS02006231        1.39      1.39      1.46      0.01         0.08
  WS02006234WS02006232        1.40      1.40      1.46      0.01         0.01
  WS02006235WS02006234        1.39      1.39      1.40      3.02         0.52
  WS02006238WS02006235        1.41      1.41      1.42      0.01         0.19
  WS02006239WS02006238        1.41      1.41      1.41      0.98         0.54
  WS02006240WS02006239        1.38      1.38      1.39      0.97         0.53
  WS02006242WS02006240        1.38      1.38      1.40      1.01         0.47
  WS02006243WS02006242        1.36      1.36      1.38      0.01         0.01
  WS02006245WS02006243        1.35      1.35      1.35      0.51         0.50
  WS02006247WS02006245        1.34      1.35      1.35      2.64         0.81
  WS02006248WS02006247        1.34      1.34      1.35      0.01         0.01
  WS02006249WS02006248        1.33      1.33      1.34      1.96         0.01
  WS02006251WS02006249        1.33      1.33      1.34      1.26         1.28
  WS02006252WS02006251        1.30      1.30      1.31      1.00         0.01
  WS02006253WS02006251        1.33      1.33      1.33      0.42         0.01
  WS02006256WS02006235        3.36      3.37      4.92      0.48         0.01
  WS02006280WS02006229        0.42      0.42      0.48      0.01         0.01
  WS02006284WS02006280        0.35      0.35      0.40      0.01         0.01
  WS02006287WS02006284        0.28      0.28      0.35      0.06         0.07
  YS02001580YS02001583        0.23      0.23      0.26      0.01         0.01
  YS02001583YS02001586        0.23      0.23      0.35      0.01         0.01
  YS02001586YS02001590        0.35      0.35      0.40      0.01         0.01
  YS02001590YS02001593        0.40      0.40      0.41      0.41         0.01
  YS02001593YS02001596        0.41      0.41      0.48      0.01         0.01
  YS02001596YS02001600        0.52      0.52      0.57      0.01         0.01
  YS02001600YS02001601        0.61      0.61      0.81      0.01         0.01
  YS02001601YS02001602        0.73      0.73      0.84      0.58         0.01
  YS02001602YS02001605        0.70      0.70      0.73      1.63         0.01
  YS02001605YS02001607        0.67      0.70      0.67      0.78         0.67
  YS02001607YS02001610        0.37      0.37      0.39      0.01         0.01
  YS02001610YS02001613        0.37      0.37      0.39      0.01         0.01
  YS02001613YS02001616        0.34      0.34      0.37      0.01         0.01
  YS02001616YS02001619        0.33      0.33      0.34      0.01         0.01
  YS02001619YS02001622        0.33      0.33      0.33      0.41         0.30
  YS02001622YS02001625        0.33      0.33      0.45      0.01         0.01
  YS02001625YS02001629        0.30      0.30      0.45      0.01         0.01
  YS02001629YS02163301        0.45      0.45      0.45      0.06         0.11
  YS02001633YS02163601        0.47      0.47      0.49      0.25         0.26
  YS02001641YS02001644        0.40      0.42      0.40      0.88         0.40
  YS02001644YS02001647        0.24      0.24      0.40      0.02         0.01
  YS02001647YS02001649        0.24      0.24      0.32      0.01         0.01
  YS02001649YS02001757        0.31      0.32      0.35      0.16         0.11
  YS02001652YS02001649        0.21      0.21      0.32      0.01         0.01
  YS02001655YS02001652        0.10      0.10      0.19      0.01         0.01
  YS02001658YS02001655        0.01      0.01      0.10      0.01         0.01
  YS02001661YS02001658        0.01      0.01      0.01      0.01         0.01
  YS02001748YS02001751        0.01      0.01      0.04      0.01         0.01
  YS02001751YS02001754        0.04      0.04      0.14      0.01         0.01
  YS02001754YS02001757        0.16      0.16      0.35      0.01         0.01
  YS02001757CaochengTiaoxuchi        0.35      0.35      0.77      0.17         0.14
  YS02001759YS02001757        0.28      0.28      0.35      0.01         0.01
  YS02001762YS02001759        0.26      0.26      0.28      0.01         0.01
  YS02001765YS02001762        0.23      0.23      0.26      0.01         0.01
  YS02001767YS02001765        0.22      0.22      0.23      0.01         0.01
  YS02001770YS02001767        0.22      0.22      0.22      0.27         0.14
  YS02001774YS02001770        0.21      0.21      0.25      0.01         0.01
  YS02001779YS02001774        0.13      0.13      0.25      0.01         0.01
  YS02001783YS02001784        0.26      0.28      0.26      0.38         0.26
  YS02001784YS02001785        0.18      0.26      0.18      0.52         0.18
  YS02001786YS02001788        0.08      0.18      0.08      0.46         0.08
  YS02001788YS02001790        0.08      0.08      0.09      0.01         0.01
  YS02001790YS02001791        0.09      0.09      0.09      0.25         0.08
  YS02001791YS02001793        0.09      0.09      0.16      0.01         0.01
  YS02001793JiankangQianchi        0.13      0.13      4.63      0.01         0.01
  YS02001882YS02001884        0.24      0.24      0.25      0.01         0.01
  YS02001884YS02001887        0.27      0.27      0.28      0.01         0.01
  YS02001887YS02001890        0.29      0.29      0.30      0.01         0.01
  YS02001890YS02001895        0.23      0.23      0.30      0.01         0.01
  YS02001895YS02001898        0.22      0.22      0.23      0.01         0.01
  YS02001898YS02001901        0.23      0.23      0.26      0.01         0.01
  YS02001901YS02001904        0.26      0.26      0.26      0.01         0.01
  YS02001904YS02001907        0.26      0.26      0.44      0.01         0.01
  YS02001907YS02006553        0.53      0.53      0.56      0.01         0.01
  YS02001910YS02001907        0.30      0.30      0.43      0.01         0.01
  YS02001915YS02001910        0.24      0.24      0.30      0.01         0.01
  YS02001918YS02001915        0.17      0.17      0.24      0.01         0.01
  YS02001920YS02001918        0.17      0.17      0.18      0.01         0.01
  YS02001923YS02001920        0.13      0.13      0.18      0.01         0.01
  YS02001926YS02001923        0.01      0.01      0.01      0.01         0.01
  YS02001929YS02001926        0.01      0.01      0.01      0.01         0.01
  YS02006553YS02006556        0.36      0.36      0.44      0.01         0.01
  YS02006556YS02006558        0.41      0.41      0.45      0.01         0.01
  YS02006558YS02006561        0.20      0.36      0.20      0.50         0.20
  YS02006561YS02001783        0.15      0.15      0.28      0.01         0.01
  YS02163301YS02001633        0.45      0.45      0.48      0.01         0.01
  YS02163601YS02164001        0.42      0.42      0.49      0.07         0.01
  YS02164001YS02001641        0.42      0.42      0.42      0.50         0.40
  YSB1154YSB6556              0.37      0.37      0.45      0.01         0.01
  YSB1171HS02004479           0.30      0.30      0.46      0.01         0.01
  YSB1174YSB1171              0.42      0.42      0.60      0.01         0.01
  YSB6556YSB1171              0.37      0.37      0.70      0.01         0.01
  
  
  ***************
  Pumping Summary
  ***************
  
  ---------------------------------------------------------------------------------------------------------
                                                  Min       Avg       Max     Total     Power    % Time Off
                        Percent   Number of      Flow      Flow      Flow    Volume     Usage    Pump Curve
  Pump                 Utilized   Start-Ups       LPS       LPS       LPS  10^6 ltr     Kw-hr    Low   High
  ---------------------------------------------------------------------------------------------------------
  CC-R1                   16.69           1      0.00    683.00    683.00     2.462     44.09    0.0   38.8
  CC-R2                   16.69           1      0.00    683.00    683.00     2.462     44.09    0.0   38.8
  CC-S1                   41.71           2      0.00    200.00    200.00     1.802     12.24    0.0    1.3
  CC-S2                   16.69           1      0.00    200.00    200.00     0.721      4.86    0.0    3.2
  JK-R1                    8.34           3      0.00    702.96   1000.00     1.227      7.23    0.0    0.0
  JK-R2                    8.34           3      0.00    702.96   1000.00     1.227      7.23    0.0    0.0
  JK-S                    13.90           4      0.00    263.29    300.00     0.745     14.48    0.0    0.0
  XR-1                    97.21           1      0.00     95.00     95.00     1.995      8.80    0.0    0.0
  XR-2                    91.94           1      0.00     95.00     95.00     1.887      7.97    0.0    0.0
  XR-3                     0.00           0      0.00      0.00      0.00     0.000      0.00    0.0    0.0
  XR-4                     0.00           0      0.00      0.00      0.00     0.000      0.00    0.0    0.0
  

  Analysis begun on:  Wed Aug 24 17:02:44 2022
  Analysis ended on:  Wed Aug 24 17:02:47 2022
  Total elapsed time: 00:00:03