
  EPA STORM WATER MANAGEMENT MODEL - VERSION 5.1 (Build 5.3.0.dev0)
  --------------------------------------------------------------

  WARNING 04: minimum elevation drop used for Conduit WS02004404WS02004405
  WARNING 03: negative offset ignored for Link YS02001904YS02001907
  
  *********************************************************
  NOTE: The summary statistics displayed in this report are
  based on results found at every computational time step,  
  not just on results from each reporting time step.
  *********************************************************
  
  ****************
  Analysis Options
  ****************
  Flow Units ............... LPS
  Process Models:
    Rainfall/Runoff ........ YES
    RDII ................... NO
    Snowmelt ............... NO
    Groundwater ............ NO
    Flow Routing ........... YES
    Ponding Allowed ........ NO
    Water Quality .......... NO
  Infiltration Method ...... HORTON
  Flow Routing Method ...... DYNWAVE
  Surcharge Method ......... EXTRAN
  Starting Date ............ 01/01/2000 00:00:00
  Ending Date .............. 01/01/2000 06:00:00
  Antecedent Dry Days ...... 8.0
  Report Time Step ......... 00:01:00
  Wet Time Step ............ 00:01:00
  Dry Time Step ............ 00:01:00
  Routing Time Step ........ 30.00 sec
  Variable Time Step ....... YES
  Maximum Trials ........... 8
  Number of Threads ........ 4
  Head Tolerance ........... 0.001500 m
  
  
  **************************        Volume         Depth
  Runoff Quantity Continuity     hectare-m            mm
  **************************     ---------       -------
  Total Precipitation ......         5.128        84.656
  Evaporation Loss .........         0.000         0.000
  Infiltration Loss ........         0.249         4.107
  Surface Runoff ...........         4.814        79.476
  Final Storage ............         0.066         1.088
  Continuity Error (%) .....        -0.018
  
  
  **************************        Volume        Volume
  Flow Routing Continuity        hectare-m      10^6 ltr
  **************************     ---------     ---------
  Dry Weather Inflow .......         0.472         4.722
  Wet Weather Inflow .......         4.816        48.156
  Groundwater Inflow .......         0.000         0.000
  RDII Inflow ..............         0.000         0.000
  External Inflow ..........         0.078         0.784
  External Outflow .........         3.181        31.811
  Flooding Loss ............         2.509        25.087
  Evaporation Loss .........         0.000         0.000
  Exfiltration Loss ........         0.000         0.000
  Initial Stored Volume ....         0.303         3.031
  Final Stored Volume ......         0.170         1.699
  Continuity Error (%) .....        -3.358
  
  
  *************************
  Highest Continuity Errors
  *************************
  Node JK-storage (-35.71%)
  Node YS02001884 (5.24%)
  Node YS02001583 (-4.41%)
  Node HS02004842 (1.35%)
  
  
  ***************************
  Time-Step Critical Elements
  ***************************
  Link WS02006252WS02006251 (42.26%)
  Link WS02006280WS02006229 (16.09%)
  Link WS02006238WS02006235 (13.53%)
  Link YS02001793JiankangQianchi (11.81%)
  Link YS02001791YS02001793 (3.81%)
  
  
  ********************************
  Highest Flow Instability Indexes
  ********************************
  Link WS02006113WS02006111 (40)
  Link WS02006238WS02006235 (29)
  Link WS02004404WS02004405 (28)
  Link WS02006229WS02006228 (23)
  Link WS02004403WS02004404 (23)
  
  
  *************************
  Routing Time Step Summary
  *************************
  Minimum Time Step           :     0.50 sec
  Average Time Step           :     1.42 sec
  Maximum Time Step           :     5.67 sec
  Percent in Steady State     :    -0.00
  Average Iterations per Step :     3.65
  Percent Not Converging      :    13.80
  
  
  ***************************
  Subcatchment Runoff Summary
  ***************************
  
  ------------------------------------------------------------------------------------------------------------------------------
                            Total      Total      Total      Total     Imperv       Perv      Total       Total     Peak  Runoff
                           Precip      Runon       Evap      Infil     Runoff     Runoff     Runoff      Runoff   Runoff   Coeff
  Subcatchment                 mm         mm         mm         mm         mm         mm         mm    10^6 ltr      LPS
  ------------------------------------------------------------------------------------------------------------------------------
  sub0                      84.66       0.00       0.00       1.03      77.48       4.90      82.38        0.07    41.10   0.973
  sub1                      84.66       0.00       0.00       1.76      74.04       7.55      81.59        0.54   303.18   0.964
  sub10                     84.66       0.00       0.00       1.24      76.55       5.53      82.08        0.91   512.16   0.970
  sub11                     84.66       0.00       0.00       1.22      76.59       5.56      82.14        0.95   557.83   0.970
  sub12                     84.66       0.00       0.00       1.98      72.46       9.03      81.49        0.71   434.55   0.963
  sub14                     84.66       0.00       0.00       1.39      75.74       6.23      81.97        0.78   449.55   0.968
  sub15                     84.66       0.00       0.00       5.47      58.25      19.93      78.18        1.34   727.44   0.923
  sub16                     84.66       0.00       0.00       5.65      55.80      22.29      78.09        0.82   474.84   0.922
  sub17                     84.66       0.00       0.00       5.51      56.63      21.58      78.21        0.67   386.99   0.924
  sub2                      84.66       0.00       0.00       7.84      52.37      23.49      75.86        0.71   330.46   0.896
  sub22                     84.66       0.00       0.00       8.30      47.45      28.10      75.56        4.77  2472.27   0.892
  sub23                     84.66       0.00       0.00       6.76      52.45      24.56      77.01        3.67  2009.36   0.910
  sub3                      84.66       0.00       0.00       8.16      52.29      22.79      75.08        1.69   718.07   0.887
  sub4                      84.66       0.00       0.00       1.97      73.72       7.35      81.06        1.69   776.75   0.958
  sub5                      84.66       0.00       0.00       1.08      77.37       4.85      82.21        0.93   520.31   0.971
  sub60                     84.66       0.00       0.00       1.87      73.26       8.29      81.56        1.07   631.95   0.963
  sub61                     84.66       0.00       0.00       2.71      69.11      11.68      80.79        1.48   878.95   0.954
  sub62                     84.66       0.00       0.00       1.24      76.54       5.53      82.07        2.25  1260.61   0.969
  sub63                     84.66       0.00       0.00       5.02      59.11      19.54      78.65        1.79  1018.81   0.929
  sub64                     84.66       0.00       0.00       2.53      70.68      10.17      80.85        1.94  1049.57   0.955
  sub65                     84.66       0.00       0.00       2.19      72.31       8.81      81.12        2.23  1178.68   0.958
  sub66                     84.66       0.00       0.00       6.24      58.91      18.31      77.22        3.60  1603.10   0.912
  sub67                     84.66       0.00       0.00       1.20      76.62       5.58      82.20        1.53   924.65   0.971
  sub68                     84.66       0.00       0.00       2.25      71.58       9.61      81.18        2.23  1285.91   0.959
  sub69                     84.66       0.00       0.00       2.03      71.76      10.67      82.43        3.05  1567.84   0.974
  sub7                      84.66       0.00       0.00       1.37      75.77       6.25      82.02        0.28   163.74   0.969
  sub70                     84.66       0.00       0.00       6.79      55.57      21.99      77.56        2.24   899.83   0.916
  sub71                     84.66       0.00       0.00       1.28      76.46       5.49      81.95        2.14  1134.23   0.968
  sub72                     84.66       0.00       0.00       1.14      77.17       4.79      81.96        1.13   557.26   0.968
  sub8                      84.66       0.00       0.00       1.39      75.75       6.23      81.98        0.52   304.32   0.968
  sub9                      84.66       0.00       0.00       1.39      75.74       6.23      81.97        0.39   228.02   0.968
  
  
  ******************
  Node Depth Summary
  ******************
  
  ---------------------------------------------------------------------------------
                                 Average  Maximum  Maximum  Time of Max    Reported
                                   Depth    Depth      HGL   Occurrence   Max Depth
  Node                 Type       Meters   Meters   Meters  days hr:min      Meters
  ---------------------------------------------------------------------------------
  HS02004478           JUNCTION     0.28     1.59    10.82     0  02:05        1.58
  HS02004479           JUNCTION     0.35     1.69    10.90     0  01:58        1.66
  HS02004480           JUNCTION     0.32     1.67    10.91     0  01:58        1.63
  HS02004770           JUNCTION     0.31     1.42    11.25     0  01:55        1.42
  HS02004777           JUNCTION     0.33     1.48    11.28     0  01:55        1.46
  HS02004785           JUNCTION     0.24     1.49    11.39     0  01:55        1.35
  HS02004788           JUNCTION     0.21     1.42    11.32     0  01:55        1.36
  HS02004792           JUNCTION     0.28     1.60    11.12     0  01:55        1.60
  HS02004799           JUNCTION     0.39     1.76    10.97     0  01:58        1.76
  HS02004802           JUNCTION     0.37     1.80    10.93     0  02:05        1.80
  HS02004807           JUNCTION     0.35     1.92    11.09     0  02:05        1.92
  HS02004817           JUNCTION     0.63     2.41    11.26     0  02:09        2.41
  HS02004824           JUNCTION     0.24     2.01    11.41     0  02:07        2.01
  HS02004830           JUNCTION     0.24     2.03    11.50     0  01:58        1.99
  HS02004837           JUNCTION     0.21     2.04    11.62     0  01:58        1.91
  HS02004842           JUNCTION     0.48     2.22    11.49     0  01:58        2.22
  HS02004848           JUNCTION     0.19     2.07    11.67     0  01:58        1.90
  HS02004852           JUNCTION     0.19     2.12    11.63     0  01:58        1.97
  HS02004856           JUNCTION     0.24     2.07    11.50     0  01:58        2.02
  HS02004862           JUNCTION     0.21     2.00    11.38     0  01:58        2.00
  HS02004870           JUNCTION     0.20     2.02    11.30     0  02:09        2.01
  HS02004876           JUNCTION     0.25     2.11    11.14     0  02:10        2.11
  HS02004881           JUNCTION     0.18     2.12    11.15     0  01:58        1.86
  HS02004901           JUNCTION     0.32     1.42    11.24     0  01:55        1.42
  WS02001211           JUNCTION     0.62     0.82     5.66     0  02:12        0.82
  WS02001212           JUNCTION     0.37     0.58     5.65     0  02:12        0.58
  WS02001213           JUNCTION     0.59     0.88     5.64     0  02:11        0.88
  WS02003059           JUNCTION     0.65     0.95     5.63     0  02:11        0.95
  WS02003060           JUNCTION     0.39     0.70     5.63     0  02:11        0.70
  WS02003066           JUNCTION     0.25     0.46     6.02     0  02:10        0.46
  WS02003067           JUNCTION     0.57     0.89     6.21     0  02:09        0.89
  WS02003069           JUNCTION     0.44     0.79     5.37     0  02:11        0.79
  WS02003072           JUNCTION     0.49     0.82     5.19     0  02:12        0.82
  WS02003073           JUNCTION     0.30     0.52     4.59     0  02:12        0.52
  WS02004138           JUNCTION     0.13     0.14     7.39     0  00:33        0.14
  WS02004139           JUNCTION     0.56     0.75     5.66     0  02:13        0.75
  WS02004401           JUNCTION     0.84     1.96     7.96     0  02:10        1.95
  WS02004402           JUNCTION     0.85     1.90     7.86     0  02:09        1.89
  WS02004403           JUNCTION     0.85     1.81     7.74     0  02:10        1.81
  WS02004404           JUNCTION     0.91     1.83     7.68     0  02:09        1.82
  WS02004405           JUNCTION     0.89     1.77     7.62     0  02:10        1.76
  WS02004406           JUNCTION     0.88     1.65     7.48     0  02:10        1.64
  WS02004407           JUNCTION     0.31     0.99     7.30     0  02:10        0.99
  WS02004409           JUNCTION     0.60     1.43     7.20     0  02:10        1.42
  WS02004410           JUNCTION     0.60     1.33     7.05     0  02:10        1.32
  WS02004411           JUNCTION     0.60     1.23     6.91     0  02:10        1.22
  WS02004412           JUNCTION     0.59     1.12     6.76     0  02:10        1.12
  WS02004413           JUNCTION     0.72     1.15     6.62     0  02:10        1.15
  WS02006109           JUNCTION     1.10     2.64     9.26     0  01:55        2.64
  WS02006110           JUNCTION     1.03     2.43     9.01     0  02:09        2.42
  WS02006111           JUNCTION     0.50     1.83     8.54     0  02:09        1.83
  WS02006112           JUNCTION     1.07     2.49     8.38     0  02:09        2.49
  WS02006113           JUNCTION     0.59     1.89     8.78     0  02:09        1.88
  WS02006115           JUNCTION     0.77     2.07     8.21     0  02:10        2.07
  WS02006116           JUNCTION     0.83     2.05     8.09     0  02:10        2.05
  WS02006228           JUNCTION     1.17     3.03     9.68     0  02:07        3.03
  WS02006229           JUNCTION     1.19     3.22     9.92     0  02:05        3.22
  WS02006230           JUNCTION     1.10     2.65     9.39     0  01:51        2.65
  WS02006231           JUNCTION     0.83     2.19     9.31     0  01:56        2.19
  WS02006232           JUNCTION     0.93     2.18     9.22     0  01:50        2.18
  WS02006234           JUNCTION     0.81     1.96     9.12     0  01:49        1.96
  WS02006235           JUNCTION     0.82     1.97     9.13     0  02:30        1.93
  WS02006238           JUNCTION     0.84     1.98     9.13     0  02:30        1.93
  WS02006239           JUNCTION     0.78     1.88     9.09     0  03:50        1.78
  WS02006240           JUNCTION     0.70     1.73     9.03     0  03:50        1.62
  WS02006242           JUNCTION     0.74     1.55     8.82     0  01:47        1.55
  WS02006243           JUNCTION     0.61     1.37     8.79     0  02:41        1.36
  WS02006245           JUNCTION     0.58     1.27     8.76     0  02:04        1.27
  WS02006247           JUNCTION     0.59     1.23     8.73     0  02:27        1.22
  WS02006248           JUNCTION     0.53     1.10     8.69     0  01:40        1.10
  WS02006249           JUNCTION     0.55     1.09     8.69     0  01:40        1.09
  WS02006251           JUNCTION     0.67     2.21     9.88     0  01:58        2.16
  WS02006252           JUNCTION     0.45     1.50     9.74     0  01:58        1.50
  WS02006253           JUNCTION     0.77     3.18    10.83     0  01:58        3.12
  WS02006256           JUNCTION     1.23     2.35     9.28     0  00:00        2.35
  WS02006280           JUNCTION     0.36     1.74    10.01     0  02:09        1.74
  WS02006284           JUNCTION     0.59     1.95    10.35     0  02:08        1.94
  WS02006287           JUNCTION     0.35     1.74    10.70     0  02:05        1.73
  WSF200               JUNCTION     0.25     0.53     5.76     0  02:10        0.53
  YS02001580           JUNCTION     0.13     1.05     9.59     0  01:53        0.77
  YS02001583           JUNCTION     0.16     1.14     9.64     0  01:53        0.81
  YS02001586           JUNCTION     0.26     1.13     9.30     0  01:53        1.13
  YS02001590           JUNCTION     0.36     1.40     9.26     0  01:53        1.37
  YS02001593           JUNCTION     0.30     1.33     9.19     0  01:53        1.28
  YS02001596           JUNCTION     0.43     1.68     9.10     0  01:53        1.65
  YS02001600           JUNCTION     0.55     1.87     9.00     0  01:53        1.86
  YS02001601           JUNCTION     0.73     2.06     8.90     0  01:52        2.06
  YS02001602           JUNCTION     0.64     1.87     8.77     0  01:53        1.87
  YS02001605           JUNCTION     0.61     1.78     8.68     0  02:55        1.77
  YS02001607           JUNCTION     0.59     1.65     8.49     0  02:17        1.64
  YS02001610           JUNCTION     0.63     1.68     8.48     0  01:58        1.68
  YS02001613           JUNCTION     0.59     1.67     8.51     0  02:09        1.66
  YS02001616           JUNCTION     0.54     1.61     8.52     0  02:08        1.61
  YS02001619           JUNCTION     0.52     1.61     8.54     0  02:09        1.61
  YS02001622           JUNCTION     0.51     1.58     8.49     0  02:09        1.58
  YS02001625           JUNCTION     0.73     1.78     8.38     0  01:58        1.78
  YS02001629           JUNCTION     0.68     1.85     8.40     0  02:00        1.85
  YS02001633           JUNCTION     0.75     2.01     8.46     0  02:02        1.99
  YS02001641           JUNCTION     0.73     1.95     8.39     0  02:02        1.94
  YS02001644           JUNCTION     0.73     1.92     8.35     0  02:02        1.92
  YS02001647           JUNCTION     0.55     1.75     8.36     0  02:03        1.73
  YS02001649           JUNCTION     0.65     1.96     8.35     0  02:05        1.95
  YS02001652           JUNCTION     0.52     1.84     8.44     0  02:03        1.80
  YS02001655           JUNCTION     0.41     1.72     8.57     0  02:03        1.60
  YS02001658           JUNCTION     0.29     1.81     8.95     0  02:03        1.37
  YS02001661           JUNCTION     0.23     1.16     8.56     0  02:10        1.16
  YS02001664           JUNCTION     0.07     0.60     8.52     0  02:10        0.60
  YS02001745           JUNCTION     0.14     0.80     8.32     0  02:09        0.80
  YS02001748           JUNCTION     0.29     1.85     8.93     0  02:04        1.23
  YS02001751           JUNCTION     0.37     1.67     8.55     0  02:04        1.40
  YS02001754           JUNCTION     0.49     1.78     8.39     0  02:04        1.66
  YS02001757           JUNCTION     0.69     1.99     8.25     0  02:09        1.97
  YS02001759           JUNCTION     0.64     2.00     8.36     0  02:05        1.99
  YS02001762           JUNCTION     0.62     1.98     8.38     0  02:05        1.97
  YS02001765           JUNCTION     0.59     1.95     8.40     0  02:05        1.93
  YS02001767           JUNCTION     0.58     1.94     8.42     0  02:05        1.91
  YS02001770           JUNCTION     0.59     1.95     8.44     0  02:05        1.94
  YS02001774           JUNCTION     0.64     1.99     8.42     0  02:05        1.99
  YS02001779           JUNCTION     0.46     1.68     8.37     0  02:00        1.68
  YS02001783           JUNCTION     0.28     1.30     7.44     0  01:59        1.24
  YS02001784           JUNCTION     0.29     1.14     7.21     0  01:59        1.12
  YS02001786           JUNCTION     0.24     0.89     6.92     0  01:59        0.87
  YS02001788           JUNCTION     0.17     0.62     6.60     0  02:08        0.62
  YS02001790           JUNCTION     0.20     0.73     6.37     0  02:08        0.72
  YS02001791           JUNCTION     0.13     0.44     5.91     0  02:08        0.43
  YS02001793           JUNCTION     0.07     0.26     5.09     0  02:08        0.25
  YS02001882           JUNCTION     0.34     1.66     8.38     0  01:58        1.65
  YS02001884           JUNCTION     0.42     1.76     8.37     0  02:09        1.75
  YS02001887           JUNCTION     0.49     1.84     8.37     0  02:09        1.83
  YS02001890           JUNCTION     0.52     1.81     8.32     0  01:58        1.81
  YS02001895           JUNCTION     0.32     1.57     8.32     0  01:59        1.56
  YS02001898           JUNCTION     0.32     1.57     8.31     0  01:59        1.56
  YS02001901           JUNCTION     0.42     1.68     8.29     0  01:59        1.67
  YS02001904           JUNCTION     0.40     1.64     8.27     0  01:59        1.63
  YS02001907           JUNCTION     0.68     1.96     8.25     0  01:59        1.96
  YS02001910           JUNCTION     0.51     1.98     8.49     0  02:00        1.95
  YS02001915           JUNCTION     0.35     1.94     8.66     0  02:00        1.90
  YS02001918           JUNCTION     0.21     1.81     8.88     0  02:00        1.59
  YS02001920           JUNCTION     0.29     2.03     9.04     0  02:00        1.68
  YS02001923           JUNCTION     0.16     1.90     9.16     0  02:00        1.44
  YS02001926           JUNCTION     0.19     1.78     9.23     0  02:00        1.28
  YS02001929           JUNCTION     0.11     1.57     9.26     0  02:00        1.23
  YS02006553           JUNCTION     0.69     1.98     8.27     0  01:59        1.98
  YS02006556           JUNCTION     0.66     1.96     8.27     0  01:59        1.96
  YS02006558           JUNCTION     0.70     2.01     8.27     0  02:06        2.00
  YS02006561           JUNCTION     0.17     1.01     7.67     0  01:59        0.95
  YS02163301           JUNCTION     0.70     1.91     8.43     0  02:02        1.90
  YS02163601           JUNCTION     0.78     2.04     8.44     0  02:02        2.01
  YS02164001           JUNCTION     0.72     1.96     8.41     0  02:02        1.93
  YSB1154              JUNCTION     0.47     1.98    11.04     0  02:09        1.98
  YSB1171              JUNCTION     0.60     1.95    10.85     0  01:55        1.95
  YSB1174              JUNCTION     0.43     1.82    10.93     0  02:09        1.82
  YSB6556              JUNCTION     0.38     1.78    10.95     0  01:55        1.77
  CC-1                 OUTFALL      0.00     0.00     0.00     0  00:00        0.00
  CC-2                 OUTFALL      0.00     0.00     0.00     0  00:00        0.00
  JK-1                 OUTFALL      0.00     0.00     0.00     0  00:00        0.00
  JK-2                 OUTFALL      0.00     0.00     0.00     0  00:00        0.00
  WSC                  OUTFALL      0.30     0.52     1.19     0  02:13        0.52
  CC-storage           STORAGE      0.98     2.30     7.80     0  02:59        2.30
  JK-storage           STORAGE      0.25     4.07     4.87     0  02:50        4.02
  XR-storage           STORAGE      7.60     8.66     6.66     0  06:00        8.66
  
  
  *******************
  Node Inflow Summary
  *******************
  
  -------------------------------------------------------------------------------------------------
                                  Maximum  Maximum                  Lateral       Total        Flow
                                  Lateral    Total  Time of Max      Inflow      Inflow     Balance
                                   Inflow   Inflow   Occurrence      Volume      Volume       Error
  Node                 Type           LPS      LPS  days hr:min    10^6 ltr    10^6 ltr     Percent
  -------------------------------------------------------------------------------------------------
  HS02004478           JUNCTION      0.00  2303.96     0  02:06           0        10.4      -0.006
  HS02004479           JUNCTION      0.00   384.38     0  02:00           0        1.03       0.081
  HS02004480           JUNCTION      0.00  2063.19     0  01:58           0        7.67       0.027
  HS02004770           JUNCTION   2009.36  2009.36     0  02:10        3.67        3.93       0.064
  HS02004777           JUNCTION      0.03   687.16     0  01:55    0.000648        2.15       0.249
  HS02004785           JUNCTION      0.15   687.26     0  01:55     0.00324        2.15       0.026
  HS02004788           JUNCTION    729.11   875.50     0  02:10        1.38        3.53       0.012
  HS02004792           JUNCTION   2472.55  3347.80     0  02:10        4.78        8.31      -0.004
  HS02004799           JUNCTION    449.55  1718.22     0  01:56       0.781        7.02       0.043
  HS02004802           JUNCTION      0.00  1234.17     0  02:12           0        2.92       0.138
  HS02004807           JUNCTION    557.83  1754.28     0  02:10       0.955        3.22       0.125
  HS02004817           JUNCTION      0.60  1197.02     0  02:14       0.013        2.32       0.727
  HS02004824           JUNCTION    776.80  1362.98     0  02:10        1.69        2.63       0.012
  HS02004830           JUNCTION      0.15   586.33     0  02:10     0.00324         1.2       0.098
  HS02004837           JUNCTION    518.51   752.69     0  01:58        1.04        1.58       0.030
  HS02004842           JUNCTION      0.00   768.07     0  01:56           0       0.951       1.369
  HS02004848           JUNCTION    718.07  1013.01     0  01:58        1.69        2.39      -0.016
  HS02004852           JUNCTION      0.00   994.35     0  01:58           0        2.15      -0.013
  HS02004856           JUNCTION    228.02  1059.92     0  01:58       0.394        2.54       0.065
  HS02004862           JUNCTION    330.66  1131.87     0  01:58       0.711        3.25      -0.007
  HS02004870           JUNCTION    304.32  1257.26     0  02:14       0.524        3.75       0.010
  HS02004876           JUNCTION    303.18  1513.64     0  02:12       0.543        4.29       0.016
  HS02004881           JUNCTION    163.74  1665.17     0  02:10       0.276        4.57       0.006
  HS02004901           JUNCTION    474.84   740.48     0  02:10       0.818        1.32       0.132
  WS02001211           JUNCTION      7.35   203.85     0  03:19       0.159        4.02       0.828
  WS02001212           JUNCTION      0.00   210.27     0  03:19           0        3.98       0.392
  WS02001213           JUNCTION      0.00   215.44     0  03:18           0        3.97       0.463
  WS02003059           JUNCTION      0.00   221.62     0  03:19           0        3.96       0.827
  WS02003060           JUNCTION     16.53  1537.30     0  02:11       0.357        14.2       0.113
  WS02003066           JUNCTION      0.00  1335.40     0  02:10           0        9.88       0.021
  WS02003067           JUNCTION      0.00  1335.08     0  02:10           0        9.89       0.051
  WS02003069           JUNCTION      0.32  1537.47     0  02:11     0.00691        14.1       0.121
  WS02003072           JUNCTION      0.00  1537.12     0  02:12           0        14.1       0.161
  WS02003073           JUNCTION      1.82  1538.99     0  02:12      0.0393        14.1       0.172
  WS02004138           JUNCTION      0.00   190.00     0  00:29           0        3.88       0.072
  WS02004139           JUNCTION      0.32   190.32     0  00:33     0.00693        3.89       0.688
  WS02004401           JUNCTION      0.00  1336.64     0  02:10           0          10       0.115
  WS02004402           JUNCTION      0.00  1336.70     0  02:10           0          10       0.114
  WS02004403           JUNCTION      0.00  1336.80     0  02:10           0        9.99       0.111
  WS02004404           JUNCTION      0.16  1336.86     0  02:10      0.0035        9.98       0.097
  WS02004405           JUNCTION      0.04  1337.79     0  02:10    0.000823        9.97       0.128
  WS02004406           JUNCTION      0.00  1337.50     0  02:10           0        9.96       0.228
  WS02004407           JUNCTION      0.00  1337.27     0  02:10           0        9.94       0.020
  WS02004409           JUNCTION      0.00  1334.98     0  02:10           0        9.94       0.049
  WS02004410           JUNCTION      0.00  1335.16     0  02:10           0        9.93       0.069
  WS02004411           JUNCTION      0.00  1335.02     0  02:10           0        9.92       0.079
  WS02004412           JUNCTION      0.00  1335.00     0  02:10           0        9.92       0.098
  WS02004413           JUNCTION      0.00  1335.03     0  02:10           0        9.91       0.170
  WS02006109           JUNCTION      1.23  1289.31     0  02:06      0.0266         9.8       0.052
  WS02006110           JUNCTION      0.00  1121.64     0  02:31           0        9.39       0.088
  WS02006111           JUNCTION      0.00  1121.98     0  02:31           0        9.38       0.011
  WS02006112           JUNCTION    386.99  1336.88     0  02:10       0.671          10       0.214
  WS02006113           JUNCTION      0.00  1121.67     0  02:31           0        9.38       0.023
  WS02006115           JUNCTION      0.00  1336.69     0  02:10           0          10       0.081
  WS02006116           JUNCTION      0.00  1336.75     0  02:10           0          10       0.052
  WS02006228           JUNCTION      0.00  1288.17     0  02:06           0        9.77       0.036
  WS02006229           JUNCTION      0.00  2304.59     0  02:06           0        12.9       0.081
  WS02006230           JUNCTION     10.28  1025.95     0  02:05       0.222        5.76       0.104
  WS02006231           JUNCTION      0.00   540.71     0  03:50           0        4.25      -0.012
  WS02006232           JUNCTION      0.00   536.25     0  03:50           0        4.24       0.136
  WS02006234           JUNCTION      0.00   526.35     0  03:50           0        4.22      -0.080
  WS02006235           JUNCTION      0.00   524.91     0  03:50           0        4.22       0.074
  WS02006238           JUNCTION      0.00   415.82     0  02:26           0        3.74      -0.312
  WS02006239           JUNCTION      0.00   415.20     0  02:25           0         3.7      -0.312
  WS02006240           JUNCTION      0.00   414.92     0  02:21           0        3.68      -0.059
  WS02006242           JUNCTION      0.00   415.04     0  02:25           0        3.67       0.007
  WS02006243           JUNCTION      0.00   395.00     0  03:43           0        3.14      -0.453
  WS02006245           JUNCTION      0.00   403.97     0  03:44           0        3.16       0.534
  WS02006247           JUNCTION      0.00   408.74     0  03:43           0        3.16       0.022
  WS02006248           JUNCTION      0.00   430.26     0  03:43           0        3.47      -0.075
  WS02006249           JUNCTION      0.00  1378.67     0  02:10           0        6.66       0.216
  WS02006251           JUNCTION      0.08  1706.27     0  02:10     0.00166        6.95      -0.024
  WS02006252           JUNCTION      0.00   527.82     0  02:10           0        2.88      -0.113
  WS02006253           JUNCTION     41.10  1706.05     0  02:09      0.0667        4.69       0.013
  WS02006256           JUNCTION      0.00   300.00     0  00:00           0        1.55      -0.266
  WS02006280           JUNCTION      0.00  2303.66     0  02:06           0        10.3       0.002
  WS02006284           JUNCTION      0.10  2303.86     0  02:06     0.00207        10.3       0.009
  WS02006287           JUNCTION      0.00  2303.86     0  02:06           0        10.3       0.007
  WSF200               JUNCTION      0.00  1335.57     0  02:10           0        9.88       0.011
  YS02001580           JUNCTION      0.00    74.84     0  01:53           0     0.00487       1.636
  YS02001583           JUNCTION      0.00   124.46     0  01:53           0      0.0164      -4.223
  YS02001586           JUNCTION    899.83   899.83     0  02:10        2.24        2.25       0.041
  YS02001590           JUNCTION      0.00   317.99     0  02:21           0        1.59       0.028
  YS02001593           JUNCTION      0.00   317.96     0  02:21           0        1.59       0.018
  YS02001596           JUNCTION      0.00   317.97     0  02:23           0        1.59      -0.024
  YS02001600           JUNCTION      0.00   317.97     0  02:21           0        1.59      -0.013
  YS02001601           JUNCTION   1567.84  1885.37     0  02:10        3.05        4.64       0.017
  YS02001602           JUNCTION      0.00   496.55     0  01:52           0         2.6       0.029
  YS02001605           JUNCTION      0.00   495.83     0  01:52           0        2.41       0.040
  YS02001607           JUNCTION      0.00   494.82     0  01:52           0        2.41       0.101
  YS02001610           JUNCTION      0.00   898.71     0  02:10           0        2.87       0.094
  YS02001613           JUNCTION      0.00   562.32     0  02:10           0         2.2       0.109
  YS02001616           JUNCTION      0.00   562.29     0  02:10           0         2.2       0.032
  YS02001619           JUNCTION   1603.10  1603.10     0  02:10         3.6        5.34       0.006
  YS02001622           JUNCTION      0.00  1040.38     0  02:10           0        4.88       0.011
  YS02001625           JUNCTION      0.00  1478.69     0  02:10           0        5.25       0.277
  YS02001629           JUNCTION      0.00   931.73     0  01:58           0        3.72      -0.048
  YS02001633           JUNCTION   1178.88  1365.07     0  01:58        2.24        5.56       0.070
  YS02001641           JUNCTION      0.00  1363.83     0  01:58           0        5.15       0.058
  YS02001644           JUNCTION   1049.61  1753.71     0  01:59        1.94        7.09       0.045
  YS02001647           JUNCTION      0.00  1754.30     0  01:59           0        6.48      -0.000
  YS02001649           JUNCTION      0.00  2043.12     0  01:58           0        8.27      -0.000
  YS02001652           JUNCTION      0.00  1028.54     0  02:10           0        1.79      -0.066
  YS02001655           JUNCTION      0.15  1028.12     0  02:10     0.00332        1.79       0.048
  YS02001658           JUNCTION      0.00  1027.96     0  02:10           0         1.8      -0.060
  YS02001661           JUNCTION      0.00  1027.66     0  02:10           0         1.8       0.015
  YS02001664           JUNCTION   1018.81  1018.81     0  02:10        1.79        1.79      -0.021
  YS02001745           JUNCTION    631.96   631.96     0  02:10        1.07        1.12       0.146
  YS02001748           JUNCTION      0.04   647.41     0  02:10    0.000972        1.12      -0.279
  YS02001751           JUNCTION      0.01   648.26     0  02:10    0.000238        1.09       0.040
  YS02001754           JUNCTION      0.26   649.12     0  02:10     0.00562        1.09      -0.118
  YS02001757           JUNCTION      0.00  3556.99     0  02:08           0        12.8       0.017
  YS02001759           JUNCTION    878.99  1457.46     0  02:10        1.48        3.46      -0.017
  YS02001762           JUNCTION      0.00   815.78     0  02:05           0        1.98      -0.019
  YS02001765           JUNCTION      0.00   816.32     0  02:05           0        1.98      -0.015
  YS02001767           JUNCTION      0.54   816.83     0  02:05      0.0116        1.98      -0.011
  YS02001770           JUNCTION   1260.76  1260.76     0  02:10        2.25         2.3      -0.033
  YS02001774           JUNCTION      0.00   682.79     0  02:10           0       0.356       0.200
  YS02001779           JUNCTION      0.01   683.48     0  02:10    0.000108       0.307      -0.231
  YS02001783           JUNCTION      0.00  1163.97     0  02:07           0        4.86       0.007
  YS02001784           JUNCTION      1.06  1165.21     0  02:07      0.0229        4.88       0.012
  YS02001786           JUNCTION      0.06  1165.02     0  02:07     0.00122        4.88       0.016
  YS02001788           JUNCTION      0.07  1164.94     0  02:07     0.00153        4.88       0.007
  YS02001790           JUNCTION      0.15  1178.64     0  02:07     0.00335        4.89       0.016
  YS02001791           JUNCTION      0.00  1293.32     0  02:08           0        4.89      -0.023
  YS02001793           JUNCTION      0.00  1262.72     0  02:08           0        4.89      -0.002
  YS02001882           JUNCTION      0.00    40.09     0  01:56           0      0.0132       5.316
  YS02001884           JUNCTION      0.00    42.30     0  01:56           0      0.0489       5.525
  YS02001887           JUNCTION    925.10   925.49     0  02:10        1.54        1.57       0.296
  YS02001890           JUNCTION      0.00   924.74     0  02:10           0        1.53       0.339
  YS02001895           JUNCTION      0.00   518.04     0  02:13           0        1.36       0.135
  YS02001898           JUNCTION      0.00   518.35     0  02:12           0        1.36       0.012
  YS02001901           JUNCTION      0.00   518.11     0  02:11           0        1.36       0.253
  YS02001904           JUNCTION      0.00   517.92     0  02:11           0        1.36       0.217
  YS02001907           JUNCTION      0.00  2343.97     0  02:10           0         4.7       0.371
  YS02001910           JUNCTION      0.00  1701.28     0  02:10           0        3.33       0.220
  YS02001915           JUNCTION   1134.25  1701.29     0  02:10        2.14        3.36       0.053
  YS02001918           JUNCTION      0.00   572.27     0  02:10           0        1.23       0.013
  YS02001920           JUNCTION      2.87   572.08     0  02:10       0.062        1.22       0.080
  YS02001923           JUNCTION      0.04   569.15     0  02:10    0.000814        1.14      -0.019
  YS02001926           JUNCTION      0.05   569.00     0  02:10     0.00113        1.13       0.039
  YS02001929           JUNCTION    557.26   557.26     0  02:10        1.13        1.13      -0.008
  YS02006553           JUNCTION      0.00   795.83     0  02:30           0        2.69       0.451
  YS02006556           JUNCTION      0.00   796.11     0  02:29           0        2.69       0.308
  YS02006558           JUNCTION   1286.79  1286.79     0  02:10        2.25        4.91       0.073
  YS02006561           JUNCTION      0.00  1164.20     0  02:07           0        4.86      -0.000
  YS02163301           JUNCTION      0.00   931.76     0  01:58           0        3.72       0.047
  YS02163601           JUNCTION      0.11  1364.98     0  01:58     0.00238        5.15       0.102
  YS02164001           JUNCTION      0.00  1365.01     0  01:58           0        5.15       0.046
  YSB1154              JUNCTION    520.31   520.31     0  02:10       0.932       0.932       0.165
  YSB1171              JUNCTION      0.00  1193.09     0  02:10           0        1.84       0.331
  YSB1174              JUNCTION    434.55   434.55     0  02:10       0.712       0.713       0.182
  YSB6556              JUNCTION      0.00   520.36     0  02:10           0       0.933       0.133
  CC-1                 OUTFALL       0.00   683.00     0  00:00           0         8.8       0.000
  CC-2                 OUTFALL       0.00   683.00     0  00:00           0         3.6       0.000
  JK-1                 OUTFALL       0.00  1000.00     0  01:57           0        3.91       0.000
  JK-2                 OUTFALL       0.00  1000.00     0  02:30           0        1.37       0.000
  WSC                  OUTFALL       0.00  1538.91     0  02:13           0        14.1       0.000
  CC-storage           STORAGE       0.00  3556.25     0  02:08           0          15      -0.529
  JK-storage           STORAGE       0.00  1313.64     0  02:08           0        5.04     -26.312
  XR-storage           STORAGE     200.00   200.00     0  00:00        4.32        4.92       0.001
  
  
  **********************
  Node Surcharge Summary
  **********************
  
  Surcharging occurs when water rises above the top of the highest conduit.
  ---------------------------------------------------------------------
                                               Max. Height   Min. Depth
                                   Hours       Above Crown    Below Rim
  Node                 Type      Surcharged         Meters       Meters
  ---------------------------------------------------------------------
  HS02004478           JUNCTION        0.67          0.668        0.272
  HS02004479           JUNCTION        0.83          0.893        0.157
  HS02004480           JUNCTION        0.87          0.955        0.145
  HS02004770           JUNCTION        0.76          0.720        0.000
  HS02004777           JUNCTION        0.77          0.780        0.000
  HS02004785           JUNCTION        0.70          0.790        0.000
  HS02004788           JUNCTION        0.69          0.720        0.000
  HS02004792           JUNCTION        0.84          0.900        0.000
  HS02004799           JUNCTION        1.00          1.060        0.000
  HS02004802           JUNCTION        0.89          1.094        0.116
  HS02004807           JUNCTION        0.87          1.220        0.000
  HS02004817           JUNCTION        1.50          1.713        0.027
  HS02004824           JUNCTION        0.69          1.310        0.000
  HS02004830           JUNCTION        0.65          1.330        0.000
  HS02004837           JUNCTION        0.61          1.340        0.000
  HS02004842           JUNCTION        0.78          1.520        0.000
  HS02004848           JUNCTION        0.53          1.370        0.000
  HS02004852           JUNCTION        0.58          1.420        0.000
  HS02004856           JUNCTION        0.53          1.300        0.000
  HS02004862           JUNCTION        0.61          1.300        0.000
  HS02004870           JUNCTION        0.61          1.317        0.083
  HS02004876           JUNCTION        0.67          1.408        0.152
  HS02004881           JUNCTION        0.64          1.422        0.028
  HS02004901           JUNCTION        0.77          0.720        0.000
  WS02004401           JUNCTION        1.67          0.958        0.702
  WS02004402           JUNCTION        1.69          0.897        0.843
  WS02004403           JUNCTION        1.69          0.814        1.216
  WS02004404           JUNCTION        1.78          0.826        1.954
  WS02004405           JUNCTION        1.77          0.773        2.027
  WS02004406           JUNCTION        1.75          0.651        1.799
  WS02004409           JUNCTION        1.33          0.426        1.934
  WS02004410           JUNCTION        1.28          0.327        2.213
  WS02004411           JUNCTION        1.16          0.225        2.305
  WS02004412           JUNCTION        1.03          0.120        2.190
  WS02004413           JUNCTION        1.51          0.154        2.046
  WS02006109           JUNCTION        2.30          1.820        0.000
  WS02006110           JUNCTION        1.87          1.515        0.335
  WS02006111           JUNCTION        1.46          1.025        0.845
  WS02006112           JUNCTION        1.99          1.494        0.186
  WS02006113           JUNCTION        1.48          1.088        0.842
  WS02006115           JUNCTION        1.61          1.057        1.193
  WS02006116           JUNCTION        1.62          0.993        1.297
  WS02006228           JUNCTION        2.27          2.200        0.000
  WS02006229           JUNCTION        1.23          1.044        0.026
  WS02006230           JUNCTION        1.76          1.570        0.000
  WS02006231           JUNCTION        1.78          1.479        0.051
  WS02006232           JUNCTION        2.11          1.480        0.000
  WS02006234           JUNCTION        1.79          1.240        0.000
  WS02006235           JUNCTION        1.84          1.261        0.029
  WS02006238           JUNCTION        1.89          1.264        0.166
  WS02006239           JUNCTION        1.76          1.137        0.153
  WS02006240           JUNCTION        1.73          1.023        0.367
  WS02006242           JUNCTION        1.86          0.820        0.000
  WS02006243           JUNCTION        1.67          0.661        0.109
  WS02006245           JUNCTION        1.64          0.560        0.290
  WS02006247           JUNCTION        1.65          0.518        0.242
  WS02006248           JUNCTION        1.59          0.380        0.000
  WS02006249           JUNCTION        1.60          0.390        0.000
  WS02006251           JUNCTION        1.50          1.180        0.000
  WS02006252           JUNCTION        2.01          1.100        0.000
  WS02006253           JUNCTION        1.50          2.143        0.337
  WS02006256           JUNCTION        5.89          2.050        0.000
  WS02006280           JUNCTION        1.02          0.693        0.087
  WS02006284           JUNCTION        0.91          0.667        0.133
  WS02006287           JUNCTION        0.79          0.745        0.145
  YS02001580           JUNCTION        0.84          0.450        0.000
  YS02001583           JUNCTION        0.85          0.500        0.000
  YS02001586           JUNCTION        1.09          0.510        0.000
  YS02001590           JUNCTION        1.20          0.750        0.000
  YS02001593           JUNCTION        1.20          0.707        0.133
  YS02001596           JUNCTION        1.34          0.955        0.115
  YS02001600           JUNCTION        1.63          1.190        0.000
  YS02001601           JUNCTION        2.42          1.440        0.000
  YS02001602           JUNCTION        2.33          1.270        0.000
  YS02001605           JUNCTION        2.30          1.180        0.000
  YS02001607           JUNCTION        1.34          0.646        0.034
  YS02001610           JUNCTION        1.42          0.680        0.000
  YS02001613           JUNCTION        1.34          0.669        0.031
  YS02001616           JUNCTION        1.27          0.610        0.000
  YS02001619           JUNCTION        1.26          0.610        0.000
  YS02001622           JUNCTION        1.27          0.582        0.038
  YS02001625           JUNCTION        1.99          0.780        0.000
  YS02001629           JUNCTION        1.22          0.470        0.000
  YS02001633           JUNCTION        2.11          0.990        0.070
  YS02001641           JUNCTION        2.09          0.954        0.146
  YS02001644           JUNCTION        2.08          0.920        0.000
  YS02001647           JUNCTION        1.83          0.753        0.147
  YS02001649           JUNCTION        2.01          0.963        0.087
  YS02001652           JUNCTION        1.78          0.810        0.320
  YS02001655           JUNCTION        1.09          0.722        0.478
  YS02001658           JUNCTION        0.32          0.807        0.493
  YS02001661           JUNCTION        0.06          0.089        1.301
  YS02001748           JUNCTION        0.20          0.771        0.419
  YS02001751           JUNCTION        0.95          0.673        0.527
  YS02001754           JUNCTION        1.73          0.735        0.415
  YS02001757           JUNCTION        2.09          0.986        0.224
  YS02001759           JUNCTION        2.00          0.999        0.211
  YS02001762           JUNCTION        1.97          0.976        0.174
  YS02001765           JUNCTION        1.92          0.954        0.146
  YS02001767           JUNCTION        1.89          0.936        0.094
  YS02001770           JUNCTION        1.87          0.919        0.001
  YS02001774           JUNCTION        1.95          0.994        0.056
  YS02001779           JUNCTION        1.71          0.680        0.000
  YS02001783           JUNCTION        0.72          0.499        1.101
  YS02001784           JUNCTION        0.69          0.338        1.152
  YS02001786           JUNCTION        0.57          0.094        1.336
  YS02001882           JUNCTION        0.66          0.664        0.166
  YS02001884           JUNCTION        0.67          0.698        0.172
  YS02001887           JUNCTION        0.71          0.786        0.164
  YS02001890           JUNCTION        0.73          0.760        0.000
  YS02001895           JUNCTION        0.65          0.569        0.181
  YS02001898           JUNCTION        0.64          0.542        0.198
  YS02001901           JUNCTION        0.69          0.677        0.193
  YS02001904           JUNCTION        0.68          0.638        0.212
  YS02001907           JUNCTION        1.01          0.950        0.000
  YS02001910           JUNCTION        0.76          0.984        0.116
  YS02001915           JUNCTION        0.65          0.939        0.061
  YS02001918           JUNCTION        0.56          0.810        0.000
  YS02001920           JUNCTION        0.57          1.031        0.109
  YS02001923           JUNCTION        0.18          0.687        0.133
  YS02001926           JUNCTION        0.21          0.781        0.119
  YS02001929           JUNCTION        0.01          0.570        0.210
  YS02006553           JUNCTION        1.03          0.983        0.207
  YS02006556           JUNCTION        0.88          0.923        0.427
  YS02006558           JUNCTION        0.86          0.906        0.494
  YS02006561           JUNCTION        0.52          0.207        0.943
  YS02163301           JUNCTION        2.07          0.914        0.116
  YS02163601           JUNCTION        2.18          1.041        0.039
  YS02164001           JUNCTION        2.09          0.957        0.143
  YSB1154              JUNCTION        1.16          1.279        0.121
  YSB1171              JUNCTION        1.16          1.100        0.000
  YSB1174              JUNCTION        1.04          1.120        0.130
  YSB6556              JUNCTION        0.96          1.077        0.023
  
  
  *********************
  Node Flooding Summary
  *********************
  
  Flooding refers to all water that overflows a node, whether it ponds or not.
  --------------------------------------------------------------------------
                                                             Total   Maximum
                                 Maximum   Time of Max       Flood    Ponded
                        Hours       Rate    Occurrence      Volume     Depth
  Node                 Flooded       LPS   days hr:min    10^6 ltr    Meters
  --------------------------------------------------------------------------
  HS02004770              0.55   1597.46      0  02:10       1.272     0.000
  HS02004777              0.01     28.00      0  01:55       0.000     0.000
  HS02004785              0.01    139.54      0  01:55       0.000     0.000
  HS02004788              0.01     50.42      0  01:55       0.000     0.000
  HS02004792              0.54   2205.38      0  02:10       2.072     0.000
  HS02004799              0.32    286.96      0  02:10       0.173     0.000
  HS02004807              0.20    521.87      0  02:10       0.252     0.000
  HS02004824              0.13    167.02      0  02:10       0.049     0.000
  HS02004830              0.01      3.59      0  01:58       0.000     0.000
  HS02004837              0.01    117.07      0  01:58       0.000     0.000
  HS02004842              0.11    165.83      0  01:58       0.029     0.000
  HS02004848              0.01    312.74      0  01:58       0.001     0.000
  HS02004852              0.01    223.49      0  01:58       0.000     0.000
  HS02004856              0.01    107.82      0  01:58       0.000     0.000
  HS02004862              0.09    294.73      0  01:58       0.025     0.000
  HS02004901              0.62    740.37      0  02:10       1.062     0.000
  WS02006109              0.59    337.30      0  02:10       0.405     0.000
  WS02006228              0.01      0.15      0  02:07       0.000     0.000
  WS02006230              0.92    573.18      0  02:05       1.325     0.000
  WS02006232              0.22      0.69      0  02:44       0.000     0.000
  WS02006234              1.00    128.49      0  02:00       0.350     0.000
  WS02006242              1.14    137.48      0  02:21       0.504     0.000
  WS02006248              1.44    339.43      0  01:51       1.594     0.000
  WS02006249              1.51   1317.78      0  02:10       4.459     0.000
  WS02006251              0.01    109.94      0  02:30       0.000     0.000
  WS02006252              0.53    527.69      0  02:10       0.628     0.000
  WS02006256              1.30    297.85      0  02:40       0.765     0.000
  YS02001580              0.01     23.89      0  01:53       0.000     0.000
  YS02001583              0.01     62.90      0  01:53       0.000     0.000
  YS02001586              0.68    582.27      0  02:10       0.648     0.000
  YS02001590              0.01      7.82      0  01:53       0.000     0.000
  YS02001600              0.01      1.86      0  01:53       0.000     0.000
  YS02001601              0.98   1487.42      0  02:10       2.046     0.000
  YS02001602              0.92     61.98      0  02:12       0.185     0.000
  YS02001610              0.76    898.70      0  02:10       1.119     0.000
  YS02001616              0.01      0.60      0  02:09       0.000     0.000
  YS02001619              0.01      3.99      0  02:10       0.000     0.000
  YS02001625              0.79   1478.51      0  02:10       1.915     0.000
  YS02001629              0.21    132.82      0  02:10       0.040     0.000
  YS02001644              0.29   1211.46      0  02:10       0.602     0.000
  YS02001779              0.22    683.30      0  02:10       0.286     0.000
  YS02001890              0.27    408.30      0  02:10       0.168     0.000
  YS02001907              0.49   2343.60      0  02:10       2.025     0.000
  YS02001918              0.01     33.81      0  02:00       0.000     0.000
  YSB1171                 0.43   1192.55      0  02:10       1.010     0.000
  CC-storage              0.07    863.18      0  02:59       0.071     0.000
  
  
  **********************
  Storage Volume Summary
  **********************
  
  --------------------------------------------------------------------------------------------------
                         Average     Avg  Evap Exfil       Maximum     Max    Time of Max    Maximum
                          Volume    Pcnt  Pcnt  Pcnt        Volume    Pcnt     Occurrence    Outflow
  Storage Unit           1000 m3    Full  Loss  Loss       1000 m3    Full    days hr:min        LPS
  --------------------------------------------------------------------------------------------------
  CC-storage               2.738      43     0     0         6.410     100       0  02:59    1766.00
  JK-storage               0.013       4     0     0         0.204      70       0  02:50    2300.00
  XR-storage               0.911      63     0     0         1.039      72       0  06:00     190.00
  
  
  ***********************
  Outfall Loading Summary
  ***********************
  
  -----------------------------------------------------------
                         Flow       Avg       Max       Total
                         Freq      Flow      Flow      Volume
  Outfall Node           Pcnt       LPS       LPS    10^6 ltr
  -----------------------------------------------------------
  CC-1                  69.45    658.94    683.00       8.802
  CC-2                  27.69    631.87    683.00       3.601
  JK-1                  57.14    341.77   1000.00       3.914
  JK-2                  24.12    307.03   1000.00       1.370
  WSC                   99.97    647.76   1538.91      14.122
  -----------------------------------------------------------
  System                55.67   2587.37   4133.18      31.811
  
  
  ********************
  Link Flow Summary
  ********************
  
  -----------------------------------------------------------------------------
                                 Maximum  Time of Max   Maximum    Max/    Max/
                                  |Flow|   Occurrence   |Veloc|    Full    Full
  Link                 Type          LPS  days hr:min     m/sec    Flow   Depth
  -----------------------------------------------------------------------------
  1                    CONDUIT   1538.91     0  02:13      3.72    0.54    0.52
  HS02004478WS02006287 CONDUIT   2303.86     0  02:06      2.61    0.64    1.00
  HS02004479HS02004480 CONDUIT    385.00     0  02:00      0.55    0.37    1.00
  HS02004480HS02004478 CONDUIT   2061.32     0  01:58      2.94    8.68    1.00
  HS02004770HS02004777 CONDUIT    687.13     0  01:55      0.98    1.26    1.00
  HS02004777HS02004785 CONDUIT    687.11     0  01:55      1.04    0.85    1.00
  HS02004785HS02004788 CONDUIT    624.06     0  02:32      1.35    4.71    1.00
  HS02004788HS02004792 CONDUIT    875.37     0  02:10      1.45    0.58    1.00
  HS02004792HS02004799 CONDUIT   1568.66     0  01:56      2.24    0.96    1.00
  HS02004799HS02004480 CONDUIT   1717.21     0  01:56      2.45    2.17    1.00
  HS02004802HS02004478 CONDUIT   1234.19     0  02:12      1.76    1.09    1.00
  HS02004807HS02004802 CONDUIT   1234.17     0  02:12      1.76    2.36    1.00
  HS02004817HS02004807 CONDUIT   1197.01     0  02:14      1.71    0.71    1.00
  HS02004817HS02004824 CONDUIT   1196.42     0  02:14      1.71    0.54    1.00
  HS02004824HS02004830 CONDUIT    586.18     0  02:10      0.84    0.77    1.00
  HS02004830HS02004837 CONDUIT    586.18     0  02:10      0.90    0.58    1.00
  HS02004837HS02004842 CONDUIT    768.07     0  01:56      1.10    0.46    1.00
  HS02004842HS02004848 CONDUIT    767.72     0  01:56      1.20    0.45    1.00
  HS02004848HS02004852 CONDUIT    994.35     0  01:58      1.56    1.12    1.00
  HS02004852HS02004856 CONDUIT    973.77     0  01:58      1.45    1.11    1.00
  HS02004856HS02004862 CONDUIT   1017.70     0  01:58      1.68    1.01    1.00
  HS02004862HS02004870 CONDUIT   1106.04     0  01:58      1.87    1.19    1.00
  HS02004870HS02004876 CONDUIT   1257.28     0  02:15      1.80    0.83    1.00
  HS02004876HS02004881 CONDUIT   1513.69     0  02:12      2.45   16.10    1.00
  HS02004881HS02006253 CONDUIT   1664.98     0  02:09      2.76    0.33    1.00
  HS02004901HS02004770 CONDUIT    265.79     0  02:28      0.38    1.00    1.00
  WS02001211WS02001212 CONDUIT    210.27     0  03:19      0.54    0.16    0.70
  WS02001212WS02001213 CONDUIT    215.44     0  03:18      1.04    0.33    0.57
  WS02001213WS02003059 CONDUIT    221.62     0  03:19      0.46    0.37    0.90
  WS02003059WS02003060 CONDUIT    230.05     0  03:19      0.65    0.15    0.82
  WS02003060WS02003069 CONDUIT   1537.15     0  02:11      2.09    0.60    0.62
  WS02003066WSF200     CONDUIT   1335.57     0  02:10      3.26    0.23    0.39
  WS02003067WS02003066 CONDUIT   1335.40     0  02:10      2.03    0.43    0.56
  WS02003069WS02003072 CONDUIT   1537.12     0  02:12      1.91    0.74    0.67
  WS02003072WS02003073 CONDUIT   1537.17     0  02:12      2.07    3.32    0.62
  WS02004138WS02004139 CONDUIT    190.00     0  00:33      2.17    0.04    0.42
  WS02004139WS02001211 CONDUIT    196.50     0  03:19      0.54    0.25    0.61
  WS02004401WS02004402 CONDUIT   1336.70     0  02:10      1.70    1.60    1.00
  WS02004402WS02004403 CONDUIT   1336.80     0  02:10      1.70    1.92    1.00
  WS02004403WS02004404 CONDUIT   1336.70     0  02:10      1.70    0.97    1.00
  WS02004404WS02004405 CONDUIT   1337.75     0  02:10      1.70   13.11    1.00
  WS02004405WS02004406 CONDUIT   1337.50     0  02:10      1.70    2.64    1.00
  WS02004406WS02004407 CONDUIT   1337.27     0  02:10      1.74    0.60    1.00
  WS02004407WS02004409 CONDUIT   1334.98     0  02:10      1.79    0.47    1.00
  WS02004409WS02004410 CONDUIT   1335.16     0  02:10      1.70    1.73    1.00
  WS02004410WS02004411 CONDUIT   1335.02     0  02:10      1.70    1.82    1.00
  WS02004411WS02004412 CONDUIT   1335.00     0  02:10      1.70    1.90    1.00
  WS02004412WS02004413 CONDUIT   1335.03     0  02:10      1.70    0.89    1.00
  WS02004413WS02003067 CONDUIT   1335.08     0  02:10      2.05    0.57    0.77
  WS02006109WS02006110 CONDUIT   1121.64     0  02:31      2.23    2.16    1.00
  WS02006110WS02006113 CONDUIT   1121.67     0  02:31      2.23    1.02    1.00
  WS02006111WS02006112 CONDUIT   1121.80     0  02:31      2.23    0.53    1.00
  WS02006112WS02006115 CONDUIT   1336.69     0  02:10      1.70    0.79    1.00
  WS02006113WS02006111 CONDUIT   1121.98     0  02:31      2.63    1.34    1.00
  WS02006115WS02006116 CONDUIT   1336.75     0  02:10      1.70    1.72    1.00
  WS02006116WS02004401 CONDUIT   1336.64     0  02:10      1.70    1.84    1.00
  WS02006228WS02006109 CONDUIT   1288.08     0  02:06      2.56    5.63    1.00
  WS02006229WS02006228 CONDUIT   1288.17     0  02:06      2.56    4.27    1.00
  WS02006230WS02006229 CONDUIT   1015.67     0  02:05      2.64   22.60    1.00
  WS02006231WS02006230 CONDUIT    502.17     0  03:50      1.39    7.62    1.00
  WS02006232WS02006231 CONDUIT    540.71     0  03:50      1.43    1.13    1.00
  WS02006234WS02006232 CONDUIT    536.25     0  03:50      1.41    1.08    1.00
  WS02006235WS02006234 CONDUIT    526.35     0  03:50      1.37    5.55    1.00
  WS02006238WS02006235 CONDUIT    415.82     0  02:26      1.62    0.93    1.00
  WS02006239WS02006238 CONDUIT    415.20     0  02:25      1.08    1.33    1.00
  WS02006240WS02006239 CONDUIT    414.92     0  02:21      1.25    1.31    1.00
  WS02006242WS02006240 CONDUIT    415.04     0  02:25      1.13    1.65    1.00
  WS02006243WS02006242 CONDUIT    386.54     0  03:46      1.36    0.83    1.00
  WS02006245WS02006243 CONDUIT    395.00     0  03:43      1.35    1.17    1.00
  WS02006247WS02006245 CONDUIT    403.97     0  03:44      1.35    3.20    1.00
  WS02006248WS02006247 CONDUIT    408.74     0  03:43      1.41    0.89    1.00
  WS02006249WS02006248 CONDUIT    430.26     0  03:43      1.41    2.36    1.00
  WS02006251WS02006249 CONDUIT   1378.67     0  02:10      3.58    3.98    1.00
  WS02006252WS02006251 CONDUIT    403.90     0  04:10      5.43    1.48    1.00
  WS02006253WS02006251 CONDUIT   1706.19     0  02:10      4.43    5.12    1.00
  WS02006256WS02006235 CONDUIT    289.10     0  00:00      4.25    3.06    1.00
  WS02006280WS02006229 CONDUIT   2304.59     0  02:06      4.48    0.49    1.00
  WS02006284WS02006280 CONDUIT   2303.66     0  02:06      3.00    0.96    1.00
  WS02006287WS02006284 CONDUIT   2303.77     0  02:06      2.93    1.07    1.00
  WSF200WS02003060     CONDUIT   1335.53     0  02:10      2.30    0.30    0.51
  YS02001580YS02001583 CONDUIT     74.84     0  01:53      0.54    0.29    1.00
  YS02001583YS02001586 CONDUIT    124.46     0  01:53      0.52    0.19    1.00
  YS02001586YS02001590 CONDUIT    317.99     0  02:21      1.24    0.56    1.00
  YS02001590YS02001593 CONDUIT    317.96     0  02:21      1.12    2.00    1.00
  YS02001593YS02001596 CONDUIT    317.97     0  02:23      1.60    0.50    1.00
  YS02001596YS02001600 CONDUIT    317.97     0  02:21      1.12    0.62    1.00
  YS02001600YS02001601 CONDUIT    317.83     0  02:12      1.12    0.55    1.00
  YS02001601YS02001602 CONDUIT    496.55     0  01:52      1.76    1.79    1.00
  YS02001602YS02001605 CONDUIT    495.83     0  01:52      1.75   10.49    1.00
  YS02001605YS02001607 CONDUIT    494.82     0  01:52      1.75    2.71    1.00
  YS02001607YS02001610 CONDUIT    499.35     0  01:52      0.64    0.47    1.00
  YS02001610YS02001613 CONDUIT    562.48     0  02:10      0.72    0.65    1.00
  YS02001613YS02001616 CONDUIT    562.32     0  02:10      0.72    0.48    1.00
  YS02001616YS02001619 CONDUIT    562.29     0  02:10      0.72    0.98    1.00
  YS02001619YS02001622 CONDUIT   1040.38     0  02:10      1.32    1.53    1.00
  YS02001622YS02001625 CONDUIT   1040.60     0  02:10      1.32    0.56    1.00
  YS02001625YS02001629 CONDUIT    931.73     0  01:58      1.19    0.44    1.00
  YS02001629YS02163301 CONDUIT    931.76     0  01:58      1.19    1.15    1.00
  YS02001633YS02163601 CONDUIT   1364.87     0  01:58      1.74    1.43    1.00
  YS02001641YS02001644 CONDUIT   1363.61     0  01:58      1.74    4.41    1.00
  YS02001644YS02001647 CONDUIT   1754.30     0  01:59      2.25    1.03    1.00
  YS02001647YS02001649 CONDUIT   1772.46     0  01:59      2.34    0.94    1.00
  YS02001649YS02001757 CONDUIT   2037.21     0  01:58      2.60    1.24    1.00
  YS02001652YS02001649 CONDUIT   1028.83     0  02:10      1.31    0.51    1.00
  YS02001655YS02001652 CONDUIT   1028.54     0  02:10      1.31    0.50    1.00
  YS02001658YS02001655 CONDUIT   1027.97     0  02:10      1.84    0.44    1.00
  YS02001661YS02001658 CONDUIT   1027.96     0  02:10      2.27    0.40    1.00
  YS02001664YS02001661 CONDUIT   1027.66     0  02:10      2.30    0.32    0.80
  YS02001745YS02001748 CONDUIT    647.36     0  02:10      2.10    0.25    0.90
  YS02001748YS02001751 CONDUIT    648.25     0  02:10      1.67    0.33    1.00
  YS02001751YS02001754 CONDUIT    648.86     0  02:10      1.38    0.31    1.00
  YS02001754YS02001757 CONDUIT    649.06     0  02:10      0.83    0.26    1.00
  YS02001757CaochengTiaoxuchi CONDUIT   3556.25     0  02:08      5.05    1.54    1.00
  YS02001759YS02001757 CONDUIT   1459.72     0  02:06      1.86    1.04    1.00
  YS02001762YS02001759 CONDUIT    815.25     0  02:05      1.04    0.94    1.00
  YS02001765YS02001762 CONDUIT    815.78     0  02:05      1.04    0.76    1.00
  YS02001767YS02001765 CONDUIT    816.32     0  02:05      1.04    1.03    1.00
  YS02001770YS02001767 CONDUIT    816.30     0  02:05      1.04    3.23    1.00
  YS02001774YS02001770 CONDUIT    682.79     0  02:10      0.87    0.44    1.00
  YS02001779YS02001774 CONDUIT    683.48     0  02:10      0.87    0.34    1.00
  YS02001783YS02001784 CONDUIT   1164.15     0  02:07      2.32    1.60    1.00
  YS02001784YS02001785 CONDUIT   1164.96     0  02:07      2.32    2.71    1.00
  YS02001786YS02001788 CONDUIT   1164.87     0  02:07      2.48    2.24    0.89
  YS02001788YS02001790 CONDUIT   1178.48     0  02:07      2.72    0.87    0.84
  YS02001790YS02001791 CONDUIT   1293.32     0  02:08      3.43    1.41    0.71
  YS02001791YS02001793 CONDUIT   1262.72     0  02:08      6.76    0.54    0.43
  YS02001793JiankangQianchi CONDUIT   1313.64     0  02:08     25.09    0.10    0.61
  YS02001882YS02001884 CONDUIT     40.09     0  01:56      0.15    0.05    1.00
  YS02001884YS02001887 CONDUIT     42.30     0  01:56      0.11    0.06    1.00
  YS02001887YS02001890 CONDUIT    924.74     0  02:10      1.18    1.58    1.00
  YS02001890YS02001895 CONDUIT    518.04     0  02:13      0.66    0.24    1.00
  YS02001895YS02001898 CONDUIT    518.35     0  02:12      0.66    0.90    1.00
  YS02001898YS02001901 CONDUIT    518.11     0  02:11      0.66    0.33    1.00
  YS02001901YS02001904 CONDUIT    517.92     0  02:11      0.66    0.80    1.00
  YS02001904YS02001907 CONDUIT    517.70     0  02:11      0.66    0.18    1.00
  YS02001907YS02006553 CONDUIT    795.83     0  02:30      0.88    0.94    1.00
  YS02001910YS02001907 CONDUIT   1701.36     0  02:10      2.17    0.96    1.00
  YS02001915YS02001910 CONDUIT   1701.28     0  02:10      2.17    0.84    1.00
  YS02001918YS02001915 CONDUIT    572.21     0  02:10      0.73    0.32    1.00
  YS02001920YS02001918 CONDUIT    572.27     0  02:10      0.73    0.55    1.00
  YS02001923YS02001920 CONDUIT    569.21     0  02:10      0.72    0.26    1.00
  YS02001926YS02001923 CONDUIT    569.11     0  02:10      0.94    0.81    1.00
  YS02001929YS02001926 CONDUIT    568.94     0  02:10      1.08    0.27    1.00
  YS02006553YS02006556 CONDUIT    796.11     0  02:29      1.01    0.68    1.00
  YS02006556YS02006558 CONDUIT    796.37     0  02:29      1.01    0.63    1.00
  YS02006558YS02006561 CONDUIT   1164.20     0  02:07      4.12    2.57    1.00
  YS02006561YS02001783 CONDUIT   1163.97     0  02:07      2.32    0.60    1.00
  YS02163301YS02001633 CONDUIT    931.63     0  01:58      1.19    0.88    1.00
  YS02163601YS02164001 CONDUIT   1365.01     0  01:58      1.74    1.21    1.00
  YS02164001YS02001641 CONDUIT   1363.83     0  01:58      1.74    1.86    1.00
  YSB1154YSB6556       CONDUIT    520.36     0  02:10      1.35    0.94    1.00
  YSB1171HS02004479    CONDUIT    384.38     0  02:00      0.76    0.26    1.00
  YSB1174YSB1171       CONDUIT    434.53     0  02:10      1.13    0.67    1.00
  YSB6556YSB1171       CONDUIT    520.83     0  02:10      1.35    0.54    1.00
  CC-R1                PUMP       683.00     0  00:00              1.00
  CC-R2                PUMP       683.00     0  00:00              1.00
  CC-S1                PUMP       200.00     0  00:00              1.00
  CC-S2                PUMP       200.00     0  02:20              1.00
  JK-R1                PUMP      1000.00     0  01:57              1.00
  JK-R2                PUMP      1000.00     0  02:30              1.00
  JK-S                 PUMP       300.00     0  00:00              1.00
  XR-1                 PUMP        95.00     0  00:10              1.00
  XR-2                 PUMP        95.00     0  00:29              1.00
  XR-3                 PUMP         0.00     0  00:00              0.00
  XR-4                 PUMP         0.00     0  00:00              0.00
  
  
  ***************************
  Flow Classification Summary
  ***************************
  
  -------------------------------------------------------------------------------------
                      Adjusted    ---------- Fraction of Time in Flow Class ---------- 
                       /Actual         Up    Down  Sub   Sup   Up    Down  Norm  Inlet 
  Conduit               Length    Dry  Dry   Dry   Crit  Crit  Crit  Crit  Ltd   Ctrl  
  -------------------------------------------------------------------------------------
  1                       1.00   0.00  0.00  0.00  0.00  1.00  0.00  0.00  0.53  0.00
  HS02004478WS02006287    1.00   0.23  0.00  0.00  0.53  0.24  0.00  0.00  0.44  0.00
  HS02004479HS02004480    1.00   0.07  0.00  0.00  0.93  0.00  0.00  0.00  0.14  0.00
  HS02004480HS02004478    1.00   0.22  0.00  0.00  0.49  0.00  0.00  0.30  0.00  0.00
  HS02004770HS02004777    1.00   0.00  0.21  0.00  0.79  0.00  0.00  0.00  0.03  0.00
  HS02004777HS02004785    1.00   0.00  0.00  0.00  1.00  0.00  0.00  0.00  0.15  0.00
  HS02004785HS02004788    1.00   0.00  0.00  0.00  1.00  0.00  0.00  0.00  0.00  0.00
  HS02004788HS02004792    1.00   0.00  0.00  0.00  0.97  0.03  0.00  0.00  0.83  0.00
  HS02004792HS02004799    1.00   0.00  0.00  0.00  0.97  0.03  0.00  0.00  0.76  0.00
  HS02004799HS02004480    1.00   0.01  0.06  0.00  0.77  0.00  0.16  0.00  0.00  0.00
  HS02004802HS02004478    1.00   0.22  0.00  0.00  0.78  0.00  0.00  0.00  0.03  0.00
  HS02004807HS02004802    1.00   0.21  0.00  0.00  0.77  0.00  0.00  0.01  0.00  0.00
  HS02004817HS02004807    1.00   0.00  0.21  0.00  0.79  0.00  0.00  0.00  0.02  0.00
  HS02004817HS02004824    1.00   0.00  0.00  0.00  1.00  0.00  0.00  0.00  0.72  0.00
  HS02004824HS02004830    1.00   0.00  0.00  0.00  1.00  0.00  0.00  0.00  0.01  0.00
  HS02004830HS02004837    1.00   0.00  0.00  0.00  1.00  0.00  0.00  0.00  0.79  0.00
  HS02004837HS02004842    1.00   0.00  0.00  0.00  0.98  0.02  0.00  0.00  0.14  0.00
  HS02004842HS02004848    1.00   0.00  0.21  0.00  0.79  0.00  0.00  0.00  0.38  0.00
  HS02004848HS02004852    1.00   0.21  0.00  0.00  0.79  0.00  0.00  0.00  0.58  0.00
  HS02004852HS02004856    1.00   0.21  0.01  0.00  0.78  0.00  0.00  0.00  0.53  0.00
  HS02004856HS02004862    1.00   0.00  0.23  0.00  0.77  0.00  0.00  0.00  0.62  0.00
  HS02004862HS02004870    1.00   0.00  0.00  0.00  1.00  0.00  0.00  0.00  0.03  0.00
  HS02004870HS02004876    1.00   0.02  0.00  0.00  0.98  0.01  0.00  0.00  0.77  0.00
  HS02004876HS02004881    1.00   0.06  0.00  0.00  0.74  0.20  0.00  0.00  0.00  0.00
  HS02004881HS02006253    1.00   0.03  0.07  0.00  0.67  0.03  0.00  0.21  0.41  0.00
  HS02004901HS02004770    1.00   0.21  0.00  0.00  0.79  0.00  0.00  0.00  0.00  0.00
  WS02001211WS02001212    1.00   0.00  0.06  0.00  0.94  0.00  0.00  0.00  0.00  0.00
  WS02001212WS02001213    1.00   0.06  0.00  0.00  0.52  0.00  0.41  0.00  0.00  0.00
  WS02001213WS02003059    1.00   0.01  0.02  0.00  0.98  0.00  0.00  0.00  0.00  0.00
  WS02003059WS02003060    1.00   0.00  0.00  0.00  0.99  0.01  0.00  0.00  0.04  0.00
  WS02003060WS02003069    1.00   0.00  0.00  0.00  0.93  0.07  0.00  0.00  0.17  0.00
  WS02003066WSF200        1.00   0.10  0.00  0.00  0.00  0.90  0.00  0.00  0.55  0.00
  WS02003067WS02003066    1.00   0.09  0.01  0.00  0.90  0.00  0.00  0.00  0.00  0.00
  WS02003069WS02003072    1.00   0.00  0.00  0.00  0.99  0.01  0.00  0.00  0.34  0.00
  WS02003072WS02003073    1.00   0.00  0.00  0.00  0.00  0.00  0.00  1.00  0.00  0.00
  WS02004138WS02004139    1.00   0.05  0.01  0.00  0.93  0.01  0.00  0.00  0.97  0.00
  WS02004139WS02001211    1.00   0.00  0.02  0.00  0.98  0.00  0.00  0.00  0.00  0.00
  WS02004401WS02004402    1.00   0.06  0.00  0.00  0.94  0.00  0.00  0.00  0.00  0.00
  WS02004402WS02004403    1.00   0.06  0.00  0.00  0.94  0.00  0.00  0.00  0.00  0.00
  WS02004403WS02004404    1.00   0.00  0.06  0.00  0.94  0.00  0.00  0.00  0.00  0.00
  WS02004404WS02004405    1.00   0.00  0.00  0.00  1.00  0.00  0.00  0.00  0.01  0.00
  WS02004405WS02004406    1.00   0.00  0.00  0.00  1.00  0.00  0.00  0.00  0.00  0.00
  WS02004406WS02004407    1.00   0.00  0.06  0.00  0.93  0.00  0.00  0.00  0.00  0.00
  WS02004407WS02004409    1.00   0.07  0.00  0.00  0.93  0.01  0.00  0.00  0.73  0.00
  WS02004409WS02004410    1.00   0.07  0.00  0.00  0.93  0.00  0.00  0.00  0.00  0.00
  WS02004410WS02004411    1.00   0.07  0.00  0.00  0.93  0.00  0.00  0.00  0.00  0.00
  WS02004411WS02004412    1.00   0.07  0.00  0.00  0.93  0.00  0.00  0.00  0.00  0.00
  WS02004412WS02004413    1.00   0.07  0.00  0.00  0.93  0.00  0.00  0.00  0.00  0.00
  WS02004413WS02003067    1.00   0.07  0.01  0.00  0.00  0.00  0.91  0.00  0.00  0.00
  WS02006109WS02006110    1.00   0.00  0.02  0.00  0.96  0.00  0.01  0.00  0.00  0.00
  WS02006110WS02006113    1.00   0.02  0.01  0.00  0.96  0.00  0.00  0.00  0.00  0.00
  WS02006111WS02006112    1.00   0.04  0.00  0.00  0.94  0.01  0.00  0.01  0.68  0.00
  WS02006112WS02006115    1.00   0.04  0.01  0.00  0.94  0.00  0.01  0.00  0.00  0.00
  WS02006113WS02006111    1.00   0.04  0.00  0.00  0.28  0.68  0.00  0.00  0.21  0.00
  WS02006115WS02006116    1.00   0.05  0.00  0.00  0.94  0.00  0.00  0.01  0.00  0.00
  WS02006116WS02004401    1.00   0.05  0.00  0.00  0.95  0.00  0.00  0.00  0.00  0.00
  WS02006228WS02006109    1.00   0.00  0.00  0.00  0.98  0.00  0.00  0.01  0.01  0.00
  WS02006229WS02006228    1.00   0.00  0.00  0.00  0.97  0.00  0.00  0.03  0.00  0.00
  WS02006230WS02006229    1.00   0.00  0.00  0.00  0.97  0.00  0.00  0.03  0.01  0.00
  WS02006231WS02006230    1.00   0.01  0.00  0.00  0.55  0.00  0.45  0.00  0.00  0.00
  WS02006232WS02006231    1.00   0.00  0.00  0.00  0.98  0.00  0.01  0.00  0.00  0.00
  WS02006234WS02006232    1.00   0.00  0.00  0.00  0.99  0.01  0.00  0.00  0.00  0.00
  WS02006235WS02006234    1.00   0.00  0.00  0.00  0.98  0.00  0.02  0.00  0.00  0.00
  WS02006238WS02006235    1.00   0.00  0.00  0.00  1.00  0.00  0.00  0.00  0.00  0.00
  WS02006239WS02006238    1.00   0.00  0.00  0.00  1.00  0.00  0.00  0.00  0.02  0.00
  WS02006240WS02006239    1.00   0.00  0.00  0.00  0.94  0.00  0.00  0.05  0.02  0.00
  WS02006242WS02006240    1.00   0.01  0.00  0.00  0.99  0.00  0.00  0.00  0.00  0.00
  WS02006243WS02006242    1.00   0.01  0.00  0.00  0.98  0.00  0.00  0.01  0.27  0.00
  WS02006245WS02006243    1.00   0.01  0.00  0.00  0.93  0.00  0.00  0.06  0.01  0.00
  WS02006247WS02006245    1.00   0.00  0.00  0.00  0.96  0.00  0.00  0.04  0.00  0.00
  WS02006248WS02006247    1.00   0.00  0.00  0.00  0.98  0.00  0.00  0.02  0.29  0.00
  WS02006249WS02006248    1.00   0.00  0.00  0.00  0.85  0.00  0.15  0.00  0.00  0.00
  WS02006251WS02006249    1.00   0.00  0.00  0.00  1.00  0.00  0.00  0.00  0.28  0.00
  WS02006252WS02006251    1.00   0.00  0.17  0.00  0.27  0.00  0.56  0.00  0.06  0.00
  WS02006253WS02006251    1.00   0.00  0.00  0.00  1.00  0.00  0.00  0.00  0.00  0.00
  WS02006256WS02006235    1.00   0.00  0.00  0.00  1.00  0.00  0.00  0.00  0.00  0.00
  WS02006280WS02006229    1.00   0.22  0.00  0.00  0.25  0.02  0.00  0.51  0.00  0.00
  WS02006284WS02006280    1.00   0.22  0.00  0.00  0.20  0.02  0.00  0.56  0.00  0.00
  WS02006287WS02006284    1.00   0.20  0.03  0.00  0.45  0.32  0.00  0.00  0.52  0.00
  WSF200WS02003060        1.00   0.00  0.10  0.00  0.48  0.42  0.00  0.00  0.41  0.00
  YS02001580YS02001583    1.00   0.32  0.33  0.00  0.35  0.00  0.00  0.00  0.49  0.00
  YS02001583YS02001586    1.00   0.23  0.38  0.00  0.39  0.00  0.00  0.00  0.49  0.00
  YS02001586YS02001590    1.00   0.21  0.00  0.00  0.64  0.02  0.00  0.12  0.45  0.00
  YS02001590YS02001593    1.00   0.21  0.00  0.00  0.23  0.00  0.55  0.00  0.00  0.00
  YS02001593YS02001596    1.00   0.22  0.00  0.00  0.37  0.01  0.00  0.40  0.12  0.00
  YS02001596YS02001600    1.00   0.22  0.00  0.00  0.46  0.01  0.00  0.32  0.06  0.00
  YS02001600YS02001601    1.00   0.22  0.00  0.00  0.78  0.00  0.00  0.00  0.34  0.00
  YS02001601YS02001602    1.00   0.21  0.00  0.00  0.78  0.00  0.00  0.00  0.00  0.00
  YS02001602YS02001605    1.00   0.22  0.00  0.00  0.78  0.00  0.00  0.00  0.00  0.00
  YS02001605YS02001607    1.00   0.22  0.00  0.00  0.78  0.00  0.00  0.00  0.00  0.00
  YS02001607YS02001610    1.00   0.22  0.00  0.00  0.78  0.00  0.00  0.00  0.01  0.00
  YS02001610YS02001613    1.00   0.22  0.00  0.00  0.78  0.00  0.00  0.00  0.00  0.00
  YS02001613YS02001616    1.00   0.21  0.00  0.00  0.79  0.00  0.00  0.00  0.00  0.00
  YS02001616YS02001619    1.00   0.21  0.00  0.00  0.79  0.00  0.00  0.00  0.00  0.00
  YS02001619YS02001622    1.00   0.21  0.00  0.00  0.79  0.00  0.00  0.00  0.03  0.00
  YS02001622YS02001625    1.00   0.21  0.00  0.00  0.79  0.00  0.00  0.00  0.04  0.00
  YS02001625YS02001629    1.00   0.22  0.02  0.00  0.44  0.00  0.32  0.00  0.00  0.00
  YS02001629YS02163301    1.00   0.23  0.00  0.00  0.77  0.00  0.00  0.00  0.00  0.00
  YS02001633YS02163601    1.00   0.00  0.02  0.00  0.98  0.00  0.00  0.00  0.19  0.00
  YS02001641YS02001644    1.00   0.00  0.02  0.00  0.98  0.00  0.00  0.00  0.00  0.00
  YS02001644YS02001647    1.00   0.00  0.23  0.00  0.77  0.00  0.00  0.00  0.00  0.00
  YS02001647YS02001649    1.00   0.00  0.23  0.00  0.61  0.16  0.00  0.00  0.30  0.00
  YS02001649YS02001757    1.00   0.00  0.00  0.00  0.86  0.14  0.00  0.00  0.36  0.00
  YS02001652YS02001649    1.00   0.00  0.00  0.00  0.98  0.02  0.00  0.00  0.44  0.00
  YS02001655YS02001652    1.00   0.00  0.00  0.00  0.51  0.01  0.00  0.48  0.07  0.00
  YS02001658YS02001655    1.00   0.00  0.22  0.00  0.67  0.11  0.00  0.00  0.35  0.00
  YS02001661YS02001658    1.00   0.22  0.00  0.00  0.50  0.28  0.00  0.00  0.36  0.00
  YS02001664YS02001661    1.00   0.21  0.00  0.00  0.68  0.11  0.00  0.00  0.79  0.00
  YS02001745YS02001748    1.00   0.00  0.00  0.00  0.36  0.00  0.00  0.64  0.05  0.00
  YS02001748YS02001751    1.00   0.00  0.00  0.00  0.87  0.13  0.00  0.00  0.47  0.00
  YS02001751YS02001754    1.00   0.00  0.00  0.00  0.48  0.01  0.00  0.51  0.05  0.00
  YS02001754YS02001757    1.00   0.00  0.00  0.00  1.00  0.00  0.00  0.00  0.52  0.00
  YS02001757CaochengTiaoxuchi    1.00   0.00  0.00  0.00  0.77  0.23  0.00  0.00  0.26  0.00
  YS02001759YS02001757    1.00   0.00  0.00  0.00  1.00  0.00  0.00  0.00  0.36  0.00
  YS02001762YS02001759    1.00   0.00  0.00  0.00  1.00  0.00  0.00  0.00  0.04  0.00
  YS02001765YS02001762    1.00   0.00  0.00  0.00  1.00  0.00  0.00  0.00  0.41  0.00
  YS02001767YS02001765    1.00   0.00  0.00  0.00  1.00  0.00  0.00  0.00  0.00  0.00
  YS02001770YS02001767    1.00   0.00  0.00  0.00  1.00  0.00  0.00  0.00  0.00  0.00
  YS02001774YS02001770    1.00   0.01  0.21  0.00  0.78  0.00  0.00  0.00  0.03  0.00
  YS02001779YS02001774    1.00   0.00  0.00  0.00  1.00  0.00  0.00  0.00  0.46  0.00
  YS02001783YS02001784    1.00   0.00  0.24  0.00  0.76  0.00  0.00  0.00  0.39  0.00
  YS02001784YS02001785    1.00   0.00  0.00  0.00  1.00  0.00  0.00  0.00  0.21  0.00
  YS02001786YS02001788    1.00   0.00  0.00  0.00  0.70  0.29  0.00  0.00  0.00  0.00
  YS02001788YS02001790    1.00   0.00  0.00  0.00  0.31  0.69  0.00  0.00  0.71  0.00
  YS02001790YS02001791    1.00   0.00  0.00  0.00  0.04  0.96  0.00  0.00  0.21  0.00
  YS02001791YS02001793    1.00   0.00  0.00  0.00  0.00  1.00  0.00  0.00  0.02  0.00
  YS02001793JiankangQianchi    1.00   0.00  0.01  0.00  0.19  0.80  0.00  0.00  0.31  0.00
  YS02001882YS02001884    1.00   0.23  0.00  0.00  0.77  0.00  0.00  0.00  0.00  0.00
  YS02001884YS02001887    1.00   0.12  0.08  0.00  0.79  0.00  0.00  0.00  0.00  0.00
  YS02001887YS02001890    1.00   0.00  0.01  0.00  0.93  0.00  0.06  0.00  0.00  0.00
  YS02001890YS02001895    1.00   0.01  0.22  0.00  0.77  0.00  0.00  0.00  0.00  0.00
  YS02001895YS02001898    1.00   0.23  0.00  0.00  0.76  0.00  0.01  0.00  0.00  0.00
  YS02001898YS02001901    1.00   0.23  0.00  0.00  0.77  0.00  0.00  0.00  0.01  0.00
  YS02001901YS02001904    1.00   0.23  0.00  0.00  0.77  0.00  0.00  0.00  0.00  0.00
  YS02001904YS02001907    1.00   0.01  0.22  0.00  0.77  0.00  0.00  0.00  0.00  0.00
  YS02001907YS02006553    1.00   0.01  0.05  0.00  0.94  0.00  0.00  0.00  0.00  0.00
  YS02001910YS02001907    1.00   0.00  0.00  0.00  0.93  0.00  0.00  0.06  0.16  0.00
  YS02001915YS02001910    1.00   0.00  0.00  0.00  0.96  0.04  0.00  0.00  0.18  0.00
  YS02001918YS02001915    1.00   0.00  0.02  0.00  0.95  0.04  0.00  0.00  0.62  0.00
  YS02001920YS02001918    1.00   0.00  0.01  0.00  0.99  0.00  0.00  0.00  0.00  0.00
  YS02001923YS02001920    1.00   0.00  0.00  0.00  1.00  0.00  0.00  0.00  0.86  0.00
  YS02001926YS02001923    1.00   0.00  0.16  0.00  0.12  0.00  0.72  0.00  0.00  0.00
  YS02001929YS02001926    1.00   0.00  0.21  0.00  0.79  0.00  0.00  0.00  0.73  0.00
  YS02006553YS02006556    1.00   0.04  0.00  0.00  0.96  0.00  0.00  0.00  0.04  0.00
  YS02006556YS02006558    1.00   0.00  0.01  0.00  0.99  0.00  0.00  0.00  0.00  0.00
  YS02006558YS02006561    1.00   0.24  0.00  0.00  0.11  0.66  0.00  0.00  0.22  0.00
  YS02006561YS02001783    1.00   0.24  0.00  0.00  0.16  0.60  0.00  0.00  0.54  0.00
  YS02163301YS02001633    1.00   0.00  0.23  0.00  0.77  0.00  0.00  0.00  0.00  0.00
  YS02163601YS02164001    1.00   0.00  0.18  0.00  0.82  0.00  0.00  0.00  0.00  0.00
  YS02164001YS02001641    1.00   0.02  0.16  0.00  0.81  0.00  0.00  0.00  0.07  0.00
  YSB1154YSB6556          1.00   0.21  0.00  0.00  0.79  0.00  0.00  0.00  0.02  0.00
  YSB1171HS02004479       1.00   0.07  0.00  0.00  0.89  0.01  0.00  0.03  0.13  0.00
  YSB1174YSB1171          1.00   0.10  0.10  0.00  0.80  0.00  0.00  0.00  0.00  0.00
  YSB6556YSB1171          1.00   0.07  0.14  0.00  0.79  0.00  0.00  0.00  0.00  0.00
  
  
  *************************
  Conduit Surcharge Summary
  *************************
  
  ----------------------------------------------------------------------------
                                                           Hours        Hours 
                         --------- Hours Full --------   Above Full   Capacity
  Conduit                Both Ends  Upstream  Dnstream   Normal Flow   Limited
  ----------------------------------------------------------------------------
  HS02004478WS02006287        0.67      0.67      0.88      0.01         0.01
  HS02004479HS02004480        0.88      0.88      0.90      0.01         0.01
  HS02004480HS02004478        0.80      0.87      0.80      1.87         0.80
  HS02004770HS02004777        0.76      0.76      0.77      0.14         0.09
  HS02004777HS02004785        0.70      0.70      0.77      0.01         0.01
  HS02004785HS02004788        0.69      0.70      0.69      1.66         0.61
  HS02004788HS02004792        0.69      0.69      0.84      0.01         0.01
  HS02004792HS02004799        0.84      0.84      1.00      0.01         0.01
  HS02004799HS02004480        0.87      0.87      1.00      1.12         0.01
  HS02004802HS02004478        0.81      0.81      0.90      0.21         0.01
  HS02004807HS02004802        0.87      0.87      0.89      0.41         0.42
  HS02004817HS02004807        0.87      0.87      1.50      0.01         0.01
  HS02004817HS02004824        0.69      0.69      1.50      0.01         0.01
  HS02004824HS02004830        0.65      0.65      0.69      0.01         0.01
  HS02004830HS02004837        0.61      0.61      0.65      0.01         0.01
  HS02004837HS02004842        0.61      0.61      0.78      0.01         0.01
  HS02004842HS02004848        0.53      0.53      0.78      0.01         0.01
  HS02004848HS02004852        0.53      0.53      0.58      0.03         0.01
  HS02004852HS02004856        0.58      0.58      0.60      0.02         0.01
  HS02004856HS02004862        0.53      0.53      0.61      0.01         0.01
  HS02004862HS02004870        0.60      0.61      0.61      0.30         0.29
  HS02004870HS02004876        0.61      0.61      0.67      0.01         0.01
  HS02004876HS02004881        0.64      0.67      0.64      1.69         0.64
  HS02004881HS02006253        0.64      0.64      1.50      0.01         0.01
  HS02004901HS02004770        0.76      0.76      0.77      0.12         0.01
  WS02003072WS02003073        0.01      0.01      0.01      3.12         0.01
  WS02004401WS02004402        1.67      1.67      1.69      1.56         1.54
  WS02004402WS02004403        1.69      1.69      1.69      1.67         1.66
  WS02004403WS02004404        1.69      1.69      1.78      0.01         0.04
  WS02004404WS02004405        1.77      1.78      1.77      4.81         1.77
  WS02004405WS02004406        1.75      1.77      1.75      1.91         1.75
  WS02004406WS02004407        0.01      0.01      1.75      0.01         0.01
  WS02004407WS02004409        0.01      0.01      1.33      0.01         0.01
  WS02004409WS02004410        1.28      1.33      1.28      1.60         1.28
  WS02004410WS02004411        1.16      1.28      1.16      1.64         1.16
  WS02004411WS02004412        1.03      1.16      1.03      1.66         1.03
  WS02004412WS02004413        1.03      1.03      1.51      0.01         0.01
  WS02004413WS02003067        0.01      0.01      1.51      0.01         0.01
  WS02006109WS02006110        1.87      1.87      2.41      1.87         0.01
  WS02006110WS02006113        1.48      1.48      2.35      0.35         0.01
  WS02006111WS02006112        1.46      1.46      2.90      0.01         0.01
  WS02006112WS02006115        1.61      1.61      1.99      0.01         0.01
  WS02006113WS02006111        1.47      1.48      1.47      1.54         1.47
  WS02006115WS02006116        1.62      1.62      1.62      1.60         1.59
  WS02006116WS02004401        1.67      1.67      1.67      1.64         1.64
  WS02006228WS02006109        2.30      2.42      2.30      3.34         2.30
  WS02006229WS02006228        2.27      2.33      2.27      2.89         2.27
  WS02006230WS02006229        2.58      2.71      2.58      4.80         1.19
  WS02006231WS02006230        1.76      1.76      1.78      4.15         1.32
  WS02006232WS02006231        1.77      1.77      2.11      0.01         0.20
  WS02006234WS02006232        1.83      1.83      2.11      0.01         0.01
  WS02006235WS02006234        1.78      1.79      1.84      3.74         1.29
  WS02006238WS02006235        1.86      1.86      1.97      0.01         0.51
  WS02006239WS02006238        1.85      1.88      1.89      1.44         0.04
  WS02006240WS02006239        1.73      1.74      1.76      1.44         0.01
  WS02006242WS02006240        1.73      1.73      1.97      1.81         1.17
  WS02006243WS02006242        1.69      1.69      1.86      0.01         0.01
  WS02006245WS02006243        1.64      1.65      1.67      0.37         0.02
  WS02006247WS02006245        1.64      1.66      1.64      3.12         0.17
  WS02006248WS02006247        1.60      1.60      1.65      0.01         0.01
  WS02006249WS02006248        1.59      1.59      1.60      1.49         0.01
  WS02006251WS02006249        1.58      1.59      1.60      1.83         1.42
  WS02006252WS02006251        2.00      2.00      2.01      0.65         0.15
  WS02006253WS02006251        1.58      1.58      1.62      1.04         0.01
  WS02006256WS02006235        4.20      4.22      5.88      0.79         0.01
  WS02006280WS02006229        1.04      1.04      1.23      0.01         0.01
  WS02006284WS02006280        0.91      0.91      1.02      0.01         0.01
  WS02006287WS02006284        0.79      0.79      0.93      0.45         0.45
  YS02001580YS02001583        0.84      0.84      0.92      0.01         0.01
  YS02001583YS02001586        0.85      0.85      1.09      0.01         0.01
  YS02001586YS02001590        1.11      1.11      1.20      0.01         0.01
  YS02001590YS02001593        1.20      1.20      1.23      1.18         0.01
  YS02001593YS02001596        1.22      1.22      1.34      0.01         0.01
  YS02001596YS02001600        1.41      1.41      1.63      0.01         0.01
  YS02001600YS02001601        2.08      2.08      2.42      0.01         0.01
  YS02001601YS02001602        2.33      2.33      2.45      1.41         0.01
  YS02001602YS02001605        2.30      2.30      2.33      2.51         0.03
  YS02001605YS02001607        2.26      2.30      2.30      1.62         1.49
  YS02001607YS02001610        1.34      1.34      1.42      0.01         0.01
  YS02001610YS02001613        1.34      1.34      1.42      0.01         0.01
  YS02001613YS02001616        1.27      1.27      1.34      0.01         0.01
  YS02001616YS02001619        1.26      1.26      1.27      0.01         0.08
  YS02001619YS02001622        1.26      1.26      1.27      1.04         0.90
  YS02001622YS02001625        1.27      1.27      1.99      0.01         0.01
  YS02001625YS02001629        1.22      1.22      1.99      0.01         0.01
  YS02001629YS02163301        2.04      2.04      2.07      0.12         0.13
  YS02001633YS02163601        2.11      2.11      2.18      0.17         0.18
  YS02001641YS02001644        2.08      2.09      2.08      1.66         1.35
  YS02001644YS02001647        1.83      1.83      2.08      0.05         0.01
  YS02001647YS02001649        1.83      1.83      2.01      0.01         0.01
  YS02001649YS02001757        2.00      2.01      2.09      0.19         0.10
  YS02001652YS02001649        1.81      1.81      2.01      0.01         0.01
  YS02001655YS02001652        1.09      1.09      1.78      0.01         0.01
  YS02001658YS02001655        0.32      0.32      1.09      0.01         0.01
  YS02001661YS02001658        0.06      0.06      0.32      0.01         0.01
  YS02001664YS02001661        0.01      0.01      0.15      0.01         0.01
  YS02001745YS02001748        0.01      0.01      0.20      0.01         0.01
  YS02001748YS02001751        0.28      0.28      0.94      0.01         0.01
  YS02001751YS02001754        0.94      0.94      1.73      0.01         0.01
  YS02001754YS02001757        1.78      1.78      2.09      0.01         0.01
  YS02001757CaochengTiaoxuchi        1.90      2.09      2.45      0.52         0.25
  YS02001759YS02001757        2.00      2.00      2.09      0.09         0.09
  YS02001762YS02001759        1.97      1.97      2.00      0.01         0.03
  YS02001765YS02001762        1.92      1.92      1.97      0.01         0.01
  YS02001767YS02001765        1.89      1.89      1.92      0.01         0.05
  YS02001770YS02001767        1.89      1.89      1.89      0.74         0.70
  YS02001774YS02001770        1.87      1.87      1.95      0.01         0.01
  YS02001779YS02001774        1.71      1.71      1.95      0.01         0.01
  YS02001783YS02001784        0.69      0.72      0.69      0.92         0.69
  YS02001784YS02001785        0.57      0.69      0.57      1.23         0.57
  YS02001786YS02001788        0.01      0.57      0.01      1.06         0.01
  YS02001790YS02001791        0.01      0.01      0.01      0.68         0.01
  YS02001793JiankangQianchi        0.01      0.01      0.37      0.01         0.01
  YS02001882YS02001884        0.66      0.66      0.67      0.01         0.01
  YS02001884YS02001887        0.69      0.69      0.71      0.01         0.01
  YS02001887YS02001890        0.73      0.73      0.74      0.18         0.01
  YS02001890YS02001895        0.65      0.65      0.77      0.01         0.01
  YS02001895YS02001898        0.64      0.64      0.65      0.01         0.01
  YS02001898YS02001901        0.65      0.65      0.69      0.01         0.01
  YS02001901YS02001904        0.68      0.68      0.69      0.01         0.01
  YS02001904YS02001907        0.68      0.68      1.04      0.01         0.01
  YS02001907YS02006553        1.23      1.23      1.32      0.01         0.01
  YS02001910YS02001907        0.76      0.76      1.01      0.01         0.01
  YS02001915YS02001910        0.65      0.65      0.76      0.01         0.01
  YS02001918YS02001915        0.56      0.56      0.65      0.01         0.01
  YS02001920YS02001918        0.56      0.56      0.57      0.01         0.01
  YS02001923YS02001920        0.51      0.51      0.57      0.01         0.01
  YS02001926YS02001923        0.18      0.18      0.21      0.01         0.01
  YS02001929YS02001926        0.01      0.01      0.21      0.01         0.01
  YS02006553YS02006556        0.88      0.88      1.03      0.01         0.01
  YS02006556YS02006558        0.95      0.95      1.05      0.01         0.01
  YS02006558YS02006561        0.59      0.86      0.59      1.17         0.59
  YS02006561YS02001783        0.52      0.52      0.72      0.01         0.01
  YS02163301YS02001633        2.07      2.07      2.14      0.01         0.01
  YS02163601YS02164001        2.09      2.09      2.18      0.14         0.01
  YS02164001YS02001641        2.08      2.09      2.09      0.77         0.67
  YSB1154YSB6556              0.96      0.96      1.16      0.01         0.01
  YSB1171HS02004479           0.83      0.83      1.16      0.01         0.01
  YSB1174YSB1171              1.04      1.04      1.44      0.01         0.01
  YSB6556YSB1171              0.96      0.96      1.57      0.01         0.01
  
  
  ***************
  Pumping Summary
  ***************
  
  ---------------------------------------------------------------------------------------------------------
                                                  Min       Avg       Max     Total     Power    % Time Off
                        Percent   Number of      Flow      Flow      Flow    Volume     Usage    Pump Curve
  Pump                 Utilized   Start-Ups       LPS       LPS       LPS  10^6 ltr     Kw-hr    Low   High
  ---------------------------------------------------------------------------------------------------------
  CC-R1                   66.62           8      0.00    658.94    683.00     8.799    158.28    0.0   75.7
  CC-R2                   30.46           7      0.00    631.87    683.00     3.600     65.25    0.0   68.4
  CC-S1                   52.83          10      0.00    195.99    200.00     2.164     13.47    0.0   48.1
  CC-S2                   13.92           5      0.00    171.15    200.00     0.483      2.79    0.0   40.0
  JK-R1                   58.27           9      0.00    341.77   1000.00     3.917     11.83    0.0    0.0
  JK-R2                   27.81          10      0.00    307.03   1000.00     1.372      3.74    0.0    0.0
  JK-S                    55.63          11      0.00    140.39    300.00     1.554     32.72    0.0    0.0
  XR-1                    97.22           1      0.00     95.00     95.00     1.995      8.84    0.0    0.0
  XR-2                    91.93           1      0.00     95.00     95.00     1.886      8.00    0.0    0.0
  XR-3                     0.00           0      0.00      0.00      0.00     0.000      0.00    0.0    0.0
  XR-4                     0.00           0      0.00      0.00      0.00     0.000      0.00    0.0    0.0
  

  Analysis begun on:  Mon Aug 22 16:56:27 2022
  Analysis ended on:  Mon Aug 22 16:56:32 2022
  Total elapsed time: 00:00:05