
  EPA STORM WATER MANAGEMENT MODEL - VERSION 5.1 (Build 5.3.0.dev0)
  --------------------------------------------------------------

  WARNING 04: minimum elevation drop used for Conduit WS02004404WS02004405
  WARNING 03: negative offset ignored for Link YS02001904YS02001907
  
  *********************************************************
  NOTE: The summary statistics displayed in this report are
  based on results found at every computational time step,  
  not just on results from each reporting time step.
  *********************************************************
  
  ****************
  Analysis Options
  ****************
  Flow Units ............... LPS
  Process Models:
    Rainfall/Runoff ........ YES
    RDII ................... NO
    Snowmelt ............... NO
    Groundwater ............ NO
    Flow Routing ........... YES
    Ponding Allowed ........ NO
    Water Quality .......... NO
  Infiltration Method ...... HORTON
  Flow Routing Method ...... DYNWAVE
  Surcharge Method ......... EXTRAN
  Starting Date ............ 01/01/2000 00:00:00
  Ending Date .............. 01/01/2000 06:00:00
  Antecedent Dry Days ...... 8.0
  Report Time Step ......... 00:01:00
  Wet Time Step ............ 00:01:00
  Dry Time Step ............ 00:01:00
  Routing Time Step ........ 30.00 sec
  Variable Time Step ....... YES
  Maximum Trials ........... 8
  Number of Threads ........ 4
  Head Tolerance ........... 0.001500 m
  
  
  **************************        Volume         Depth
  Runoff Quantity Continuity     hectare-m            mm
  **************************     ---------       -------
  Total Precipitation ......         5.842        96.433
  Evaporation Loss .........         0.000         0.000
  Infiltration Loss ........         0.245         4.038
  Surface Runoff ...........         5.533        91.342
  Final Storage ............         0.066         1.083
  Continuity Error (%) .....        -0.031
  
  
  **************************        Volume        Volume
  Flow Routing Continuity        hectare-m      10^6 ltr
  **************************     ---------     ---------
  Dry Weather Inflow .......         0.472         4.722
  Wet Weather Inflow .......         5.534        55.341
  Groundwater Inflow .......         0.000         0.000
  RDII Inflow ..............         0.000         0.000
  External Inflow ..........         0.078         0.784
  External Outflow .........         2.863        28.629
  Flooding Loss ............         3.479        34.790
  Evaporation Loss .........         0.000         0.000
  Exfiltration Loss ........         0.000         0.000
  Initial Stored Volume ....         0.303         3.031
  Final Stored Volume ......         0.214         2.142
  Continuity Error (%) .....        -2.635
  
  
  *************************
  Highest Continuity Errors
  *************************
  Node JK-storage (-30.21%)
  Node YS02001583 (-6.05%)
  Node YS02001884 (4.62%)
  Node CC-storage (-1.70%)
  Node HS02004842 (1.26%)
  
  
  ***************************
  Time-Step Critical Elements
  ***************************
  Link WS02006252WS02006251 (55.17%)
  Link WS02006238WS02006235 (18.85%)
  Link WS02006280WS02006229 (8.11%)
  Link WS02003066WSF200 (5.52%)
  Link YS02001793JiankangQianchi (3.49%)
  
  
  ********************************
  Highest Flow Instability Indexes
  ********************************
  Link WS02006113WS02006111 (45)
  Link WS02006238WS02006235 (21)
  Link WS02004404WS02004405 (21)
  Link WS02006256WS02006235 (18)
  Link WS02006111WS02006112 (18)
  
  
  *************************
  Routing Time Step Summary
  *************************
  Minimum Time Step           :     0.50 sec
  Average Time Step           :     1.17 sec
  Maximum Time Step           :     4.26 sec
  Percent in Steady State     :    -0.00
  Average Iterations per Step :     3.16
  Percent Not Converging      :     9.30
  
  
  ***************************
  Subcatchment Runoff Summary
  ***************************
  
  ------------------------------------------------------------------------------------------------------------------------------
                            Total      Total      Total      Total     Imperv       Perv      Total       Total     Peak  Runoff
                           Precip      Runon       Evap      Infil     Runoff     Runoff     Runoff      Runoff   Runoff   Coeff
  Subcatchment                 mm         mm         mm         mm         mm         mm         mm    10^6 ltr      LPS
  ------------------------------------------------------------------------------------------------------------------------------
  sub0                      96.43       0.00       0.00       1.02      88.45       5.74      94.19        0.08    61.31   0.977
  sub1                      96.43       0.00       0.00       1.73      84.54       8.88      93.42        0.62   447.08   0.969
  sub10                     96.43       0.00       0.00       1.22      87.40       6.50      93.90        1.04   757.55   0.974
  sub11                     96.43       0.00       0.00       1.20      87.44       6.52      93.96        1.09   829.32   0.974
  sub12                     96.43       0.00       0.00       1.95      82.73      10.59      93.32        0.82   648.38   0.968
  sub14                     96.43       0.00       0.00       1.37      86.47       7.31      93.78        0.89   666.83   0.973
  sub15                     96.43       0.00       0.00       5.37      66.51      23.57      90.08        1.55  1059.20   0.934
  sub16                     96.43       0.00       0.00       5.55      63.70      26.28      89.99        0.94   698.63   0.933
  sub17                     96.43       0.00       0.00       5.41      64.65      25.46      90.11        0.77   568.99   0.934
  sub2                      96.43       0.00       0.00       7.71      59.80      27.98      87.78        0.82   470.34   0.910
  sub22                     96.43       0.00       0.00       8.15      54.18      33.32      87.50        5.53  3562.23   0.907
  sub23                     96.43       0.00       0.00       6.64      59.88      29.05      88.94        4.24  2923.48   0.922
  sub3                      96.43       0.00       0.00       8.12      59.72      27.26      86.99        1.96  1007.53   0.902
  sub4                      96.43       0.00       0.00       1.93      84.22       8.68      92.90        1.94  1094.44   0.963
  sub5                      96.43       0.00       0.00       1.06      88.34       5.69      94.02        1.07   768.02   0.975
  sub60                     96.43       0.00       0.00       1.84      83.65       9.74      93.38        1.23   939.99   0.968
  sub61                     96.43       0.00       0.00       2.67      78.90      13.73      92.63        1.70  1306.49   0.961
  sub62                     96.43       0.00       0.00       1.23      87.39       6.49      93.88        2.57  1861.61   0.974
  sub63                     96.43       0.00       0.00       4.92      67.49      23.05      90.54        2.06  1497.41   0.939
  sub64                     96.43       0.00       0.00       2.49      80.71      11.98      92.69        2.23  1534.93   0.961
  sub65                     96.43       0.00       0.00       2.15      82.57      10.39      92.95        2.56  1716.04   0.964
  sub66                     96.43       0.00       0.00       6.14      67.28      21.83      89.11        4.16  2255.11   0.924
  sub67                     96.43       0.00       0.00       1.18      87.48       6.54      94.02        1.75  1379.27   0.975
  sub68                     96.43       0.00       0.00       2.21      81.72      11.30      93.02        2.56  1904.56   0.965
  sub69                     96.43       0.00       0.00       1.98      81.78      12.49      94.27        3.49  2279.47   0.978
  sub7                      96.43       0.00       0.00       1.35      86.50       7.33      93.84        0.32   243.81   0.973
  sub70                     96.43       0.00       0.00       6.69      63.35      26.10      89.45        2.58  1250.48   0.928
  sub71                     96.43       0.00       0.00       1.26      87.31       6.46      93.77        2.45  1655.39   0.972
  sub72                     96.43       0.00       0.00       1.12      88.14       5.63      93.77        1.29   800.80   0.972
  sub8                      96.43       0.00       0.00       1.37      86.48       7.32      93.80        0.60   451.98   0.973
  sub9                      96.43       0.00       0.00       1.37      86.48       7.31      93.79        0.45   338.43   0.973
  
  
  ******************
  Node Depth Summary
  ******************
  
  ---------------------------------------------------------------------------------
                                 Average  Maximum  Maximum  Time of Max    Reported
                                   Depth    Depth      HGL   Occurrence   Max Depth
  Node                 Type       Meters   Meters   Meters  days hr:min      Meters
  ---------------------------------------------------------------------------------
  HS02004478           JUNCTION     0.19     1.60    10.83     0  01:51        1.58
  HS02004479           JUNCTION     0.25     1.70    10.91     0  01:51        1.66
  HS02004480           JUNCTION     0.22     1.69    10.93     0  01:51        1.63
  HS02004770           JUNCTION     0.23     1.42    11.25     0  01:48        1.42
  HS02004777           JUNCTION     0.25     1.48    11.28     0  01:48        1.47
  HS02004785           JUNCTION     0.16     1.49    11.39     0  01:48        1.37
  HS02004788           JUNCTION     0.13     1.42    11.32     0  01:48        1.42
  HS02004792           JUNCTION     0.17     1.60    11.12     0  01:48        1.60
  HS02004799           JUNCTION     0.28     1.76    10.97     0  01:48        1.76
  HS02004802           JUNCTION     0.28     1.81    10.94     0  01:51        1.80
  HS02004807           JUNCTION     0.25     1.92    11.09     0  01:51        1.92
  HS02004817           JUNCTION     0.54     2.41    11.26     0  01:56        2.41
  HS02004824           JUNCTION     0.15     2.01    11.41     0  01:55        2.01
  HS02004830           JUNCTION     0.16     2.00    11.47     0  01:51        1.99
  HS02004837           JUNCTION     0.13     1.95    11.53     0  01:51        1.92
  HS02004842           JUNCTION     0.41     2.22    11.49     0  01:51        2.22
  HS02004848           JUNCTION     0.11     2.06    11.66     0  01:51        1.93
  HS02004852           JUNCTION     0.12     2.12    11.63     0  01:51        1.98
  HS02004856           JUNCTION     0.17     2.07    11.50     0  01:51        2.05
  HS02004862           JUNCTION     0.13     2.00    11.38     0  01:51        2.00
  HS02004870           JUNCTION     0.12     2.07    11.36     0  01:59        2.06
  HS02004876           JUNCTION     0.17     2.21    11.24     0  02:00        2.21
  HS02004881           JUNCTION     0.11     1.96    10.99     0  01:59        1.96
  HS02004901           JUNCTION     0.23     1.42    11.24     0  01:47        1.42
  WS02001211           JUNCTION     0.61     0.84     5.68     0  02:02        0.84
  WS02001212           JUNCTION     0.35     0.60     5.66     0  02:01        0.60
  WS02001213           JUNCTION     0.57     0.90     5.66     0  02:01        0.90
  WS02003059           JUNCTION     0.63     0.96     5.65     0  02:01        0.96
  WS02003060           JUNCTION     0.37     0.71     5.64     0  02:01        0.71
  WS02003066           JUNCTION     0.23     0.47     6.03     0  02:00        0.47
  WS02003067           JUNCTION     0.54     0.91     6.23     0  01:57        0.91
  WS02003069           JUNCTION     0.42     0.80     5.39     0  02:01        0.80
  WS02003072           JUNCTION     0.48     0.83     5.21     0  02:01        0.83
  WS02003073           JUNCTION     0.29     0.53     4.60     0  02:02        0.53
  WS02004138           JUNCTION     0.13     0.14     7.39     0  00:32        0.14
  WS02004139           JUNCTION     0.55     0.77     5.68     0  02:02        0.77
  WS02004401           JUNCTION     0.74     2.12     8.12     0  01:59        2.11
  WS02004402           JUNCTION     0.76     2.04     8.00     0  01:59        2.04
  WS02004403           JUNCTION     0.77     1.95     7.88     0  01:58        1.95
  WS02004404           JUNCTION     0.83     1.95     7.80     0  01:59        1.94
  WS02004405           JUNCTION     0.82     1.89     7.74     0  01:59        1.89
  WS02004406           JUNCTION     0.81     1.77     7.60     0  01:59        1.76
  WS02004407           JUNCTION     0.26     1.09     7.40     0  01:58        1.08
  WS02004409           JUNCTION     0.54     1.50     7.27     0  01:59        1.50
  WS02004410           JUNCTION     0.54     1.39     7.11     0  01:59        1.38
  WS02004411           JUNCTION     0.55     1.28     6.96     0  01:58        1.28
  WS02004412           JUNCTION     0.55     1.16     6.80     0  02:00        1.15
  WS02004413           JUNCTION     0.68     1.18     6.65     0  01:58        1.17
  WS02006109           JUNCTION     0.94     2.64     9.26     0  01:48        2.64
  WS02006110           JUNCTION     0.89     2.48     9.07     0  01:59        2.47
  WS02006111           JUNCTION     0.39     1.99     8.70     0  01:59        1.98
  WS02006112           JUNCTION     0.95     2.68     8.56     0  01:58        2.68
  WS02006113           JUNCTION     0.48     2.00     8.89     0  01:59        1.99
  WS02006115           JUNCTION     0.67     2.25     8.39     0  02:00        2.24
  WS02006116           JUNCTION     0.73     2.23     8.27     0  01:59        2.21
  WS02006228           JUNCTION     0.98     3.03     9.68     0  01:51        3.03
  WS02006229           JUNCTION     0.99     3.23     9.93     0  01:51        3.22
  WS02006230           JUNCTION     0.93     2.65     9.39     0  01:45        2.65
  WS02006231           JUNCTION     0.69     2.19     9.32     0  02:10        2.19
  WS02006232           JUNCTION     0.79     2.18     9.22     0  01:45        2.18
  WS02006234           JUNCTION     0.69     1.96     9.12     0  01:43        1.96
  WS02006235           JUNCTION     0.71     2.00     9.16     0  01:50        1.93
  WS02006238           JUNCTION     0.74     2.04     9.19     0  01:50        1.93
  WS02006239           JUNCTION     0.69     1.90     9.11     0  01:50        1.78
  WS02006240           JUNCTION     0.64     1.70     9.00     0  01:50        1.62
  WS02006242           JUNCTION     0.69     1.55     8.82     0  01:40        1.55
  WS02006243           JUNCTION     0.58     1.42     8.84     0  03:11        1.37
  WS02006245           JUNCTION     0.57     1.34     8.82     0  03:11        1.27
  WS02006247           JUNCTION     0.59     1.28     8.78     0  03:11        1.22
  WS02006248           JUNCTION     0.53     1.10     8.69     0  01:38        1.10
  WS02006249           JUNCTION     0.56     1.09     8.69     0  01:38        1.09
  WS02006251           JUNCTION     0.63     2.21     9.88     0  01:50        2.19
  WS02006252           JUNCTION     0.44     1.50     9.74     0  00:40        1.50
  WS02006253           JUNCTION     0.70     3.23    10.88     0  02:00        3.23
  WS02006256           JUNCTION     1.00     2.35     9.28     0  00:06        2.35
  WS02006280           JUNCTION     0.24     1.76    10.03     0  01:51        1.73
  WS02006284           JUNCTION     0.49     1.97    10.37     0  01:51        1.94
  WS02006287           JUNCTION     0.24     1.76    10.72     0  01:51        1.73
  WSF200               JUNCTION     0.23     0.55     5.78     0  01:59        0.54
  YS02001580           JUNCTION     0.08     1.05     9.59     0  01:47        0.77
  YS02001583           JUNCTION     0.11     1.14     9.64     0  01:47        0.82
  YS02001586           JUNCTION     0.18     1.13     9.30     0  01:47        1.13
  YS02001590           JUNCTION     0.26     1.40     9.26     0  01:47        1.37
  YS02001593           JUNCTION     0.20     1.33     9.20     0  01:47        1.28
  YS02001596           JUNCTION     0.31     1.68     9.10     0  01:47        1.65
  YS02001600           JUNCTION     0.41     1.87     9.00     0  01:47        1.86
  YS02001601           JUNCTION     0.59     2.06     8.90     0  01:46        2.06
  YS02001602           JUNCTION     0.52     1.87     8.77     0  01:47        1.87
  YS02001605           JUNCTION     0.49     1.78     8.68     0  01:47        1.77
  YS02001607           JUNCTION     0.49     1.66     8.50     0  01:47        1.64
  YS02001610           JUNCTION     0.53     1.68     8.48     0  01:47        1.68
  YS02001613           JUNCTION     0.50     1.70     8.54     0  01:47        1.67
  YS02001616           JUNCTION     0.44     1.61     8.52     0  01:47        1.61
  YS02001619           JUNCTION     0.42     1.61     8.54     0  01:47        1.61
  YS02001622           JUNCTION     0.42     1.59     8.49     0  01:47        1.58
  YS02001625           JUNCTION     0.65     1.78     8.38     0  01:47        1.78
  YS02001629           JUNCTION     0.59     1.85     8.40     0  01:47        1.85
  YS02001633           JUNCTION     0.66     2.05     8.51     0  02:00        2.05
  YS02001641           JUNCTION     0.65     1.96     8.39     0  02:00        1.95
  YS02001644           JUNCTION     0.65     1.92     8.35     0  01:52        1.92
  YS02001647           JUNCTION     0.49     1.78     8.39     0  01:56        1.76
  YS02001649           JUNCTION     0.59     2.04     8.43     0  01:56        2.01
  YS02001652           JUNCTION     0.47     1.91     8.51     0  01:56        1.90
  YS02001655           JUNCTION     0.36     1.87     8.72     0  01:53        1.77
  YS02001658           JUNCTION     0.24     1.85     8.99     0  01:53        1.60
  YS02001661           JUNCTION     0.19     1.46     8.86     0  02:00        1.45
  YS02001664           JUNCTION     0.05     1.05     8.98     0  02:00        1.05
  YS02001745           JUNCTION     0.11     0.99     8.51     0  01:58        0.98
  YS02001748           JUNCTION     0.25     1.76     8.84     0  01:53        1.38
  YS02001751           JUNCTION     0.33     1.72     8.60     0  01:53        1.54
  YS02001754           JUNCTION     0.45     1.78     8.39     0  01:53        1.76
  YS02001757           JUNCTION     0.66     2.07     8.33     0  01:58        2.06
  YS02001759           JUNCTION     0.60     2.09     8.46     0  01:58        2.08
  YS02001762           JUNCTION     0.58     2.05     8.45     0  01:59        2.05
  YS02001765           JUNCTION     0.55     2.00     8.45     0  01:58        2.00
  YS02001767           JUNCTION     0.53     1.97     8.46     0  01:56        1.96
  YS02001770           JUNCTION     0.54     1.95     8.44     0  01:53        1.95
  YS02001774           JUNCTION     0.59     2.00     8.42     0  01:53        2.00
  YS02001779           JUNCTION     0.41     1.68     8.37     0  01:51        1.68
  YS02001783           JUNCTION     0.21     1.90     8.04     0  01:55        1.55
  YS02001784           JUNCTION     0.23     1.89     7.96     0  01:55        1.48
  YS02001786           JUNCTION     0.20     1.88     7.91     0  01:55        1.31
  YS02001788           JUNCTION     0.15     2.28     8.25     0  01:55        1.16
  YS02001790           JUNCTION     0.18     1.91     7.56     0  01:55        1.31
  YS02001791           JUNCTION     0.14     1.58     7.05     0  01:55        1.28
  YS02001793           JUNCTION     0.14     1.91     6.74     0  01:55        1.80
  YS02001882           JUNCTION     0.25     1.71     8.42     0  01:59        1.70
  YS02001884           JUNCTION     0.33     1.81     8.42     0  02:00        1.81
  YS02001887           JUNCTION     0.40     1.89     8.42     0  01:59        1.88
  YS02001890           JUNCTION     0.43     1.81     8.32     0  01:50        1.81
  YS02001895           JUNCTION     0.23     1.57     8.32     0  01:51        1.56
  YS02001898           JUNCTION     0.23     1.57     8.31     0  01:50        1.56
  YS02001901           JUNCTION     0.33     1.68     8.29     0  01:50        1.67
  YS02001904           JUNCTION     0.31     1.64     8.27     0  01:50        1.63
  YS02001907           JUNCTION     0.60     1.96     8.25     0  01:50        1.96
  YS02001910           JUNCTION     0.42     2.01     8.52     0  02:00        2.01
  YS02001915           JUNCTION     0.26     2.00     8.72     0  01:57        2.00
  YS02001918           JUNCTION     0.14     1.81     8.88     0  01:51        1.73
  YS02001920           JUNCTION     0.22     2.14     9.15     0  01:51        1.83
  YS02001923           JUNCTION     0.11     2.03     9.29     0  01:51        1.61
  YS02001926           JUNCTION     0.14     1.90     9.35     0  01:51        1.46
  YS02001929           JUNCTION     0.08     1.78     9.47     0  01:51        1.25
  YS02006553           JUNCTION     0.60     2.08     8.36     0  01:55        2.00
  YS02006556           JUNCTION     0.58     2.18     8.50     0  01:55        2.01
  YS02006558           JUNCTION     0.62     2.28     8.54     0  01:55        2.09
  YS02006561           JUNCTION     0.13     1.43     8.09     0  01:55        1.16
  YS02163301           JUNCTION     0.61     1.94     8.45     0  02:00        1.93
  YS02163601           JUNCTION     0.70     2.05     8.45     0  02:00        2.05
  YS02164001           JUNCTION     0.64     1.96     8.41     0  02:00        1.96
  YSB1154              JUNCTION     0.37     2.10    11.16     0  01:58        2.10
  YSB1171              JUNCTION     0.51     1.95    10.85     0  01:48        1.95
  YSB1174              JUNCTION     0.33     1.90    11.01     0  02:00        1.90
  YSB6556              JUNCTION     0.28     1.80    10.97     0  01:57        1.80
  CC-1                 OUTFALL      0.00     0.00     0.00     0  00:00        0.00
  CC-2                 OUTFALL      0.00     0.00     0.00     0  00:00        0.00
  JK-1                 OUTFALL      0.00     0.00     0.00     0  00:00        0.00
  JK-2                 OUTFALL      0.00     0.00     0.00     0  00:00        0.00
  WSC                  OUTFALL      0.29     0.53     1.20     0  02:02        0.53
  CC-storage           STORAGE      1.14     2.29     7.79     0  03:20        2.29
  JK-storage           STORAGE      0.50     5.80     6.60     0  01:55        5.80
  XR-storage           STORAGE      7.69     8.66     6.66     0  06:00        8.66
  
  
  *******************
  Node Inflow Summary
  *******************
  
  -------------------------------------------------------------------------------------------------
                                  Maximum  Maximum                  Lateral       Total        Flow
                                  Lateral    Total  Time of Max      Inflow      Inflow     Balance
                                   Inflow   Inflow   Occurrence      Volume      Volume       Error
  Node                 Type           LPS      LPS  days hr:min    10^6 ltr    10^6 ltr     Percent
  -------------------------------------------------------------------------------------------------
  HS02004478           JUNCTION      0.00  2304.96     0  01:55           0        10.1      -0.009
  HS02004479           JUNCTION      0.00   465.78     0  01:51           0       0.976       0.070
  HS02004480           JUNCTION      0.00  2078.69     0  01:50           0        7.28       0.021
  HS02004770           JUNCTION   2923.48  3025.10     0  02:00        4.24        4.49       0.059
  HS02004777           JUNCTION      0.03   754.66     0  01:47    0.000648        1.91       0.281
  HS02004785           JUNCTION      0.15   762.95     0  01:47     0.00324        1.91       0.013
  HS02004788           JUNCTION   1060.87  1060.87     0  02:00        1.59        3.47      -0.001
  HS02004792           JUNCTION   3562.51  4522.44     0  02:00        5.53        8.99      -0.001
  HS02004799           JUNCTION    666.83  1808.93     0  02:00       0.893        6.89       0.042
  HS02004802           JUNCTION      0.00  1234.07     0  02:09           0        3.11       0.129
  HS02004807           JUNCTION    829.32  2026.09     0  02:00        1.09        3.64       0.111
  HS02004817           JUNCTION      0.60  1197.13     0  02:03       0.013        2.61       0.646
  HS02004824           JUNCTION   1094.49  1702.62     0  02:00        1.94        3.03       0.012
  HS02004830           JUNCTION      0.15   622.63     0  01:48     0.00324        1.28       0.096
  HS02004837           JUNCTION    763.90   828.60     0  01:50        1.17        1.62       0.023
  HS02004842           JUNCTION      0.00   827.00     0  01:50           0        1.04       1.278
  HS02004848           JUNCTION   1007.53  1100.35     0  01:50        1.96        2.51      -0.006
  HS02004852           JUNCTION      0.00  1035.14     0  01:50           0        2.07       0.004
  HS02004856           JUNCTION    338.43  1085.25     0  01:50       0.451        2.52      -0.003
  HS02004862           JUNCTION    470.54  1315.27     0  02:00       0.822        3.34      -0.021
  HS02004870           JUNCTION    451.98  1291.52     0  01:50       0.599        3.68       0.000
  HS02004876           JUNCTION    447.08  1520.22     0  02:06       0.621         4.3       0.022
  HS02004881           JUNCTION    243.81  1713.34     0  02:00       0.316        4.61       0.002
  HS02004901           JUNCTION    698.63   963.64     0  02:00       0.942        1.46       0.108
  WS02001211           JUNCTION      7.35   207.96     0  02:03       0.159        4.02       0.828
  WS02001212           JUNCTION      0.00   210.22     0  02:03           0        3.98       0.389
  WS02001213           JUNCTION      0.00   212.23     0  03:14           0        3.97       0.505
  WS02003059           JUNCTION      0.00   216.62     0  03:14           0        3.96       0.904
  WS02003060           JUNCTION     16.53  1593.36     0  02:01       0.357        14.7       0.152
  WS02003066           JUNCTION      0.00  1399.96     0  02:00           0        10.4       0.036
  WS02003067           JUNCTION      0.00  1399.94     0  02:00           0        10.4       0.077
  WS02003069           JUNCTION      0.32  1587.05     0  02:01     0.00691        14.7       0.160
  WS02003072           JUNCTION      0.00  1585.15     0  02:01           0        14.7       0.203
  WS02003073           JUNCTION      1.82  1587.07     0  02:02      0.0393        14.7       0.222
  WS02004138           JUNCTION      0.00   190.00     0  00:29           0        3.88       0.070
  WS02004139           JUNCTION      0.32   190.32     0  00:32     0.00693        3.89       0.689
  WS02004401           JUNCTION      0.00  1398.87     0  01:59           0        10.6       0.167
  WS02004402           JUNCTION      0.00  1398.78     0  02:00           0        10.6       0.159
  WS02004403           JUNCTION      0.00  1398.40     0  02:00           0        10.6       0.150
  WS02004404           JUNCTION      0.16  1399.28     0  02:00      0.0035        10.6       0.125
  WS02004405           JUNCTION      0.04  1400.06     0  02:00    0.000823        10.6       0.162
  WS02004406           JUNCTION      0.00  1399.51     0  02:00           0        10.6       0.282
  WS02004407           JUNCTION      0.00  1399.06     0  02:00           0        10.5       0.053
  WS02004409           JUNCTION      0.00  1399.75     0  02:00           0        10.5       0.119
  WS02004410           JUNCTION      0.00  1399.63     0  02:00           0        10.5       0.140
  WS02004411           JUNCTION      0.00  1399.67     0  02:00           0        10.5       0.147
  WS02004412           JUNCTION      0.00  1399.54     0  02:00           0        10.5       0.163
  WS02004413           JUNCTION      0.00  1400.16     0  02:00           0        10.5       0.252
  WS02006109           JUNCTION      1.23  1289.42     0  01:56      0.0266        10.5       0.120
  WS02006110           JUNCTION      0.00  1126.34     0  02:25           0        9.95       0.149
  WS02006111           JUNCTION      0.00  1126.14     0  02:25           0        9.93       0.026
  WS02006112           JUNCTION    568.99  1408.02     0  02:00       0.773        10.7       0.241
  WS02006113           JUNCTION      0.00  1126.42     0  02:25           0        9.94       0.060
  WS02006115           JUNCTION      0.00  1398.20     0  02:00           0        10.7       0.147
  WS02006116           JUNCTION      0.00  1398.74     0  02:00           0        10.7       0.123
  WS02006228           JUNCTION      0.00  1289.07     0  01:56           0        10.5       0.086
  WS02006229           JUNCTION      0.00  2305.17     0  01:56           0        13.5       0.073
  WS02006230           JUNCTION     10.28  1025.56     0  01:55       0.222        6.59       0.129
  WS02006231           JUNCTION      0.00   501.72     0  03:30           0        5.04       0.097
  WS02006232           JUNCTION      0.00   501.68     0  03:30           0        5.04       0.202
  WS02006234           JUNCTION      0.00   501.77     0  03:30           0        5.04       0.030
  WS02006235           JUNCTION      0.00   502.32     0  03:30           0        4.94       0.105
  WS02006238           JUNCTION      0.00   416.20     0  02:13           0        4.64      -0.160
  WS02006239           JUNCTION      0.00   415.32     0  02:17           0        4.62      -0.368
  WS02006240           JUNCTION      0.00   415.18     0  02:17           0        4.62       0.033
  WS02006242           JUNCTION      0.00   415.04     0  02:21           0        4.63       0.122
  WS02006243           JUNCTION      0.00   404.38     0  03:30           0        4.12      -0.402
  WS02006245           JUNCTION      0.00   404.44     0  03:30           0        4.14       0.393
  WS02006247           JUNCTION      0.00   404.39     0  03:30           0        4.14       0.089
  WS02006248           JUNCTION      0.00   407.13     0  04:02           0        4.42      -0.091
  WS02006249           JUNCTION      0.00  1395.80     0  02:00           0        7.77       0.158
  WS02006251           JUNCTION      0.08  1774.87     0  02:00     0.00166        8.18      -0.025
  WS02006252           JUNCTION      0.00   772.32     0  02:00           0        4.26      -0.059
  WS02006253           JUNCTION     61.31  1774.89     0  02:00      0.0763        4.76      -0.006
  WS02006256           JUNCTION      0.00   300.00     0  01:40           0         1.3      -0.038
  WS02006280           JUNCTION      0.00  2303.67     0  01:56           0        10.1       0.010
  WS02006284           JUNCTION      0.10  2304.73     0  01:56     0.00207        10.1       0.001
  WS02006287           JUNCTION      0.00  2305.71     0  01:56           0        10.1       0.004
  WSF200               JUNCTION      0.00  1399.51     0  02:00           0        10.4       0.031
  YS02001580           JUNCTION      0.00   126.45     0  01:47           0     0.00446      -1.203
  YS02001583           JUNCTION      0.00   181.97     0  01:47           0      0.0155      -5.702
  YS02001586           JUNCTION   1250.48  1250.48     0  02:00        2.58         2.6       0.054
  YS02001590           JUNCTION      0.00   317.99     0  02:06           0        1.57       0.028
  YS02001593           JUNCTION      0.00   318.11     0  02:17           0        1.57       0.014
  YS02001596           JUNCTION      0.00   318.16     0  02:17           0        1.57      -0.015
  YS02001600           JUNCTION      0.00   318.10     0  02:17           0        1.57      -0.019
  YS02001601           JUNCTION   2279.47  2596.85     0  02:00        3.49        5.06       0.019
  YS02001602           JUNCTION      0.00   520.59     0  01:47           0         2.5       0.030
  YS02001605           JUNCTION      0.00   520.55     0  01:47           0         2.3       0.038
  YS02001607           JUNCTION      0.00   520.93     0  01:46           0         2.3       0.106
  YS02001610           JUNCTION      0.00   954.78     0  02:04           0        2.98       0.092
  YS02001613           JUNCTION      0.00   618.09     0  02:04           0        2.26       0.089
  YS02001616           JUNCTION      0.00   618.61     0  02:04           0        2.26       0.033
  YS02001619           JUNCTION   2255.11  2255.11     0  02:00        4.16        5.73       0.003
  YS02001622           JUNCTION      0.00  1054.06     0  02:02           0        4.82       0.011
  YS02001625           JUNCTION      0.00  1505.42     0  02:07           0        5.27       0.297
  YS02001629           JUNCTION      0.00   943.36     0  01:47           0        3.76      -0.069
  YS02001633           JUNCTION   1716.24  1716.24     0  02:00        2.56        5.64       0.068
  YS02001641           JUNCTION      0.00  1402.35     0  01:50           0        4.97       0.060
  YS02001644           JUNCTION   1534.97  2651.83     0  02:00        2.23        7.24       0.049
  YS02001647           JUNCTION      0.00  1843.68     0  01:50           0        5.77      -0.003
  YS02001649           JUNCTION      0.00  2111.05     0  01:50           0        7.78       0.002
  YS02001652           JUNCTION      0.00  1498.13     0  02:00           0        2.06      -0.065
  YS02001655           JUNCTION      0.15  1496.21     0  02:00     0.00332        2.06       0.032
  YS02001658           JUNCTION      0.00  1496.56     0  02:00           0        2.07      -0.007
  YS02001661           JUNCTION      0.00  1496.81     0  02:00           0        2.07      -0.013
  YS02001664           JUNCTION   1497.41  1497.41     0  02:00        2.06        2.06      -0.022
  YS02001745           JUNCTION    940.00   940.00     0  02:00        1.23        1.26       0.155
  YS02001748           JUNCTION      0.04   943.84     0  02:00    0.000972        1.27      -0.288
  YS02001751           JUNCTION      0.01   944.27     0  02:00    0.000238        1.24       0.057
  YS02001754           JUNCTION      0.26   943.54     0  02:00     0.00562        1.25      -0.118
  YS02001757           JUNCTION      0.00  3660.02     0  01:57           0        12.5       0.008
  YS02001759           JUNCTION   1306.53  1554.51     0  02:00         1.7        3.51      -0.012
  YS02001762           JUNCTION      0.00   792.77     0  01:53           0        1.81      -0.017
  YS02001765           JUNCTION      0.00   795.95     0  01:53           0        1.81      -0.016
  YS02001767           JUNCTION      0.54   797.62     0  01:53      0.0116        1.81      -0.021
  YS02001770           JUNCTION   1861.76  1861.76     0  02:00        2.58        2.62      -0.035
  YS02001774           JUNCTION      0.00   852.25     0  02:04           0       0.676       0.109
  YS02001779           JUNCTION      0.01   851.83     0  02:03    0.000108       0.631      -0.162
  YS02001783           JUNCTION      0.00  1170.57     0  01:55           0        4.39       0.003
  YS02001784           JUNCTION      1.06  1171.74     0  01:55      0.0229        4.42       0.013
  YS02001786           JUNCTION      0.06  1173.11     0  01:55     0.00122        4.42       0.017
  YS02001788           JUNCTION      0.07  1177.25     0  01:55     0.00153        4.42       0.002
  YS02001790           JUNCTION      0.15  1171.67     0  01:52     0.00335        4.42       0.009
  YS02001791           JUNCTION      0.00  1283.70     0  01:52           0        4.42      -0.007
  YS02001793           JUNCTION      0.00  1360.20     0  02:31           0        4.42      -0.049
  YS02001882           JUNCTION      0.00    51.40     0  01:48           0      0.0135       4.860
  YS02001884           JUNCTION      0.00    68.84     0  01:48           0      0.0496       4.840
  YS02001887           JUNCTION   1379.72  1379.72     0  02:00        1.76        1.79       0.252
  YS02001890           JUNCTION      0.00  1379.95     0  02:00           0        1.75       0.290
  YS02001895           JUNCTION      0.00   517.86     0  01:59           0        1.34       0.135
  YS02001898           JUNCTION      0.00   517.81     0  01:59           0        1.34       0.004
  YS02001901           JUNCTION      0.00   518.04     0  01:58           0        1.34       0.257
  YS02001904           JUNCTION      0.00   518.06     0  01:59           0        1.35       0.190
  YS02001907           JUNCTION      0.00  3411.85     0  02:00           0        5.41       0.329
  YS02001910           JUNCTION      0.00  1993.30     0  02:01           0        3.71       0.193
  YS02001915           JUNCTION   1655.41  2459.30     0  02:00        2.45        3.84       0.042
  YS02001918           JUNCTION      0.00   806.73     0  02:00           0        1.41       0.005
  YS02001920           JUNCTION      2.87   805.91     0  02:00       0.062         1.4       0.070
  YS02001923           JUNCTION      0.04   801.93     0  02:00    0.000814        1.32      -0.056
  YS02001926           JUNCTION      0.05   800.61     0  02:00     0.00113         1.3       0.041
  YS02001929           JUNCTION    800.80   800.80     0  02:00        1.29        1.29      -0.023
  YS02006553           JUNCTION      0.00   901.76     0  02:00           0        2.57       0.464
  YS02006556           JUNCTION      0.00   902.86     0  02:00           0        2.57       0.302
  YS02006558           JUNCTION   1905.44  1905.44     0  02:00        2.58        4.78       0.071
  YS02006561           JUNCTION      0.00  1175.77     0  01:50           0        4.39      -0.002
  YS02163301           JUNCTION      0.00   933.77     0  02:00           0        3.76       0.041
  YS02163601           JUNCTION      0.11  1402.80     0  01:50     0.00238        4.96       0.106
  YS02164001           JUNCTION      0.00  1403.71     0  01:50           0        4.96       0.042
  YSB1154              JUNCTION    768.02   768.02     0  02:00        1.07        1.07       0.138
  YSB1171              JUNCTION      0.00  1526.05     0  02:00           0        2.13       0.288
  YSB1174              JUNCTION    648.38   648.38     0  02:00       0.816       0.816       0.150
  YSB6556              JUNCTION      0.00   725.68     0  02:00           0        1.06       0.096
  CC-1                 OUTFALL       0.00   683.00     0  00:20           0        8.07       0.000
  CC-2                 OUTFALL       0.00   683.00     0  00:30           0        2.74       0.000
  JK-1                 OUTFALL       0.00  1000.00     0  00:00           0        1.85       0.000
  JK-2                 OUTFALL       0.00  1000.00     0  01:30           0        1.33       0.000
  WSC                  OUTFALL       0.00  1587.60     0  02:02           0        14.6       0.000
  CC-storage           STORAGE       0.00  3658.79     0  01:57           0        14.7      -1.673
  JK-storage           STORAGE       0.00  1703.43     0  02:31           0        4.57     -23.204
  XR-storage           STORAGE     200.00   200.00     0  00:00        4.32        4.92       0.001
  
  
  **********************
  Node Surcharge Summary
  **********************
  
  Surcharging occurs when water rises above the top of the highest conduit.
  ---------------------------------------------------------------------
                                               Max. Height   Min. Depth
                                   Hours       Above Crown    Below Rim
  Node                 Type      Surcharged         Meters       Meters
  ---------------------------------------------------------------------
  HS02004478           JUNCTION        0.70          0.679        0.261
  HS02004479           JUNCTION        0.82          0.904        0.146
  HS02004480           JUNCTION        0.86          0.977        0.123
  HS02004770           JUNCTION        0.77          0.720        0.000
  HS02004777           JUNCTION        0.78          0.780        0.000
  HS02004785           JUNCTION        0.73          0.790        0.000
  HS02004788           JUNCTION        0.72          0.720        0.000
  HS02004792           JUNCTION        0.83          0.900        0.000
  HS02004799           JUNCTION        0.97          1.060        0.000
  HS02004802           JUNCTION        0.87          1.100        0.110
  HS02004807           JUNCTION        0.86          1.220        0.000
  HS02004817           JUNCTION        1.47          1.714        0.026
  HS02004824           JUNCTION        0.72          1.310        0.000
  HS02004830           JUNCTION        0.69          1.301        0.029
  HS02004837           JUNCTION        0.64          1.247        0.093
  HS02004842           JUNCTION        0.78          1.520        0.000
  HS02004848           JUNCTION        0.61          1.358        0.012
  HS02004852           JUNCTION        0.63          1.420        0.000
  HS02004856           JUNCTION        0.62          1.300        0.000
  HS02004862           JUNCTION        0.66          1.300        0.000
  HS02004870           JUNCTION        0.66          1.374        0.026
  HS02004876           JUNCTION        0.72          1.511        0.049
  HS02004881           JUNCTION        0.70          1.264        0.186
  HS02004901           JUNCTION        0.78          0.720        0.000
  WS02004401           JUNCTION        1.74          1.118        0.542
  WS02004402           JUNCTION        1.76          1.041        0.699
  WS02004403           JUNCTION        1.76          0.951        1.079
  WS02004404           JUNCTION        1.93          0.950        1.830
  WS02004405           JUNCTION        1.88          0.892        1.908
  WS02004406           JUNCTION        1.83          0.766        1.684
  WS02004407           JUNCTION        0.14          0.086        2.254
  WS02004409           JUNCTION        1.18          0.500        1.860
  WS02004410           JUNCTION        1.15          0.386        2.154
  WS02004411           JUNCTION        1.09          0.282        2.248
  WS02004412           JUNCTION        1.00          0.157        2.153
  WS02004413           JUNCTION        1.49          0.176        2.024
  WS02006109           JUNCTION        2.37          1.820        0.000
  WS02006110           JUNCTION        2.04          1.575        0.275
  WS02006111           JUNCTION        1.45          1.184        0.686
  WS02006112           JUNCTION        2.10          1.680        0.000
  WS02006113           JUNCTION        1.47          1.195        0.735
  WS02006115           JUNCTION        1.66          1.238        1.012
  WS02006116           JUNCTION        1.68          1.167        1.123
  WS02006228           JUNCTION        2.36          2.200        0.000
  WS02006229           JUNCTION        1.13          1.054        0.016
  WS02006230           JUNCTION        1.98          1.570        0.000
  WS02006231           JUNCTION        2.00          1.483        0.047
  WS02006232           JUNCTION        2.47          1.480        0.000
  WS02006234           JUNCTION        2.04          1.240        0.000
  WS02006235           JUNCTION        2.11          1.290        0.000
  WS02006238           JUNCTION        2.22          1.323        0.107
  WS02006239           JUNCTION        2.05          1.163        0.127
  WS02006240           JUNCTION        2.03          0.994        0.396
  WS02006242           JUNCTION        2.39          0.820        0.000
  WS02006243           JUNCTION        2.03          0.708        0.062
  WS02006245           JUNCTION        2.01          0.627        0.223
  WS02006247           JUNCTION        2.09          0.568        0.192
  WS02006248           JUNCTION        1.96          0.380        0.000
  WS02006249           JUNCTION        2.03          0.390        0.000
  WS02006251           JUNCTION        1.59          1.180        0.000
  WS02006252           JUNCTION        2.49          1.100        0.000
  WS02006253           JUNCTION        1.65          2.193        0.287
  WS02006256           JUNCTION        5.88          2.050        0.000
  WS02006280           JUNCTION        0.99          0.709        0.071
  WS02006284           JUNCTION        0.90          0.693        0.107
  WS02006287           JUNCTION        0.80          0.762        0.128
  YS02001580           JUNCTION        0.87          0.450        0.000
  YS02001583           JUNCTION        0.88          0.500        0.000
  YS02001586           JUNCTION        1.06          0.510        0.000
  YS02001590           JUNCTION        1.17          0.750        0.000
  YS02001593           JUNCTION        1.18          0.713        0.127
  YS02001596           JUNCTION        1.36          0.952        0.118
  YS02001600           JUNCTION        1.77          1.190        0.000
  YS02001601           JUNCTION        2.38          1.440        0.000
  YS02001602           JUNCTION        2.28          1.270        0.000
  YS02001605           JUNCTION        2.26          1.180        0.000
  YS02001607           JUNCTION        1.39          0.656        0.024
  YS02001610           JUNCTION        1.64          0.680        0.000
  YS02001613           JUNCTION        1.40          0.696        0.004
  YS02001616           JUNCTION        1.31          0.610        0.000
  YS02001619           JUNCTION        1.30          0.610        0.000
  YS02001622           JUNCTION        1.32          0.591        0.029
  YS02001625           JUNCTION        1.95          0.780        0.000
  YS02001629           JUNCTION        1.27          0.470        0.000
  YS02001633           JUNCTION        2.15          1.032        0.028
  YS02001641           JUNCTION        2.16          0.957        0.143
  YS02001644           JUNCTION        2.16          0.920        0.000
  YS02001647           JUNCTION        1.83          0.784        0.116
  YS02001649           JUNCTION        2.14          1.038        0.012
  YS02001652           JUNCTION        1.80          0.885        0.245
  YS02001655           JUNCTION        1.13          0.872        0.328
  YS02001658           JUNCTION        0.38          0.853        0.447
  YS02001661           JUNCTION        0.17          0.385        1.005
  YS02001664           JUNCTION        0.02          0.051        1.259
  YS02001748           JUNCTION        0.30          0.685        0.505
  YS02001751           JUNCTION        0.92          0.725        0.475
  YS02001754           JUNCTION        1.75          0.732        0.418
  YS02001757           JUNCTION        2.27          1.068        0.142
  YS02001759           JUNCTION        2.16          1.092        0.118
  YS02001762           JUNCTION        2.11          1.052        0.098
  YS02001765           JUNCTION        2.05          1.002        0.098
  YS02001767           JUNCTION        2.01          0.968        0.062
  YS02001770           JUNCTION        1.95          0.920        0.000
  YS02001774           JUNCTION        2.08          1.002        0.048
  YS02001779           JUNCTION        1.73          0.680        0.000
  YS02001783           JUNCTION        0.76          1.098        0.502
  YS02001784           JUNCTION        0.74          1.090        0.400
  YS02001786           JUNCTION        0.67          1.078        0.352
  YS02001788           JUNCTION        0.58          1.478        0.002
  YS02001790           JUNCTION        0.60          1.114        0.043
  YS02001791           JUNCTION        0.59          0.783        1.137
  YS02001793           JUNCTION        0.60          0.911        1.689
  YS02001882           JUNCTION        0.72          0.709        0.121
  YS02001884           JUNCTION        0.73          0.748        0.122
  YS02001887           JUNCTION        0.76          0.837        0.113
  YS02001890           JUNCTION        0.77          0.760        0.000
  YS02001895           JUNCTION        0.70          0.568        0.182
  YS02001898           JUNCTION        0.69          0.540        0.200
  YS02001901           JUNCTION        0.75          0.682        0.188
  YS02001904           JUNCTION        0.74          0.641        0.209
  YS02001907           JUNCTION        0.96          0.950        0.000
  YS02001910           JUNCTION        0.79          1.014        0.086
  YS02001915           JUNCTION        0.72          1.000        0.000
  YS02001918           JUNCTION        0.63          0.810        0.000
  YS02001920           JUNCTION        0.64          1.140        0.000
  YS02001923           JUNCTION        0.27          0.820        0.000
  YS02001926           JUNCTION        0.29          0.900        0.000
  YS02001929           JUNCTION        0.17          0.780        0.000
  YS02006553           JUNCTION        0.98          1.076        0.114
  YS02006556           JUNCTION        0.87          1.144        0.206
  YS02006558           JUNCTION        0.86          1.175        0.225
  YS02006561           JUNCTION        0.66          0.629        0.521
  YS02163301           JUNCTION        2.09          0.935        0.095
  YS02163601           JUNCTION        2.25          1.053        0.027
  YS02164001           JUNCTION        2.14          0.956        0.144
  YSB1154              JUNCTION        1.09          1.400        0.000
  YSB1171              JUNCTION        1.10          1.100        0.000
  YSB1174              JUNCTION        1.00          1.201        0.049
  YSB6556              JUNCTION        0.94          1.100        0.000
  
  
  *********************
  Node Flooding Summary
  *********************
  
  Flooding refers to all water that overflows a node, whether it ponds or not.
  --------------------------------------------------------------------------
                                                             Total   Maximum
                                 Maximum   Time of Max       Flood    Ponded
                        Hours       Rate    Occurrence      Volume     Depth
  Node                 Flooded       LPS   days hr:min    10^6 ltr    Meters
  --------------------------------------------------------------------------
  HS02004770              0.56   2755.16      0  02:00       2.081     0.000
  HS02004777              0.01     49.72      0  01:48       0.000     0.000
  HS02004785              0.01    240.64      0  01:48       0.001     0.000
  HS02004788              0.01    174.86      0  01:48       0.000     0.000
  HS02004792              0.56   3375.58      0  02:00       2.990     0.000
  HS02004799              0.36    502.86      0  02:00       0.319     0.000
  HS02004807              0.27    793.01      0  02:00       0.482     0.000
  HS02004824              0.22    505.41      0  02:00       0.248     0.000
  HS02004842              0.22    656.92      0  02:00       0.274     0.000
  HS02004852              0.01    103.54      0  01:51       0.000     0.000
  HS02004856              0.01    272.61      0  01:51       0.001     0.000
  HS02004862              0.20    743.78      0  02:00       0.265     0.000
  HS02004901              0.64    962.98      0  02:00       1.227     0.000
  WS02006109              0.62    448.89      0  02:00       0.503     0.000
  WS02006112              0.01      9.73      0  02:00       0.000     0.000
  WS02006228              0.01      1.95      0  01:51       0.000     0.000
  WS02006230              0.90    573.13      0  01:55       1.374     0.000
  WS02006232              0.21      0.86      0  02:24       0.000     0.000
  WS02006234              0.96    128.54      0  02:29       0.380     0.000
  WS02006235              0.01      8.58      0  01:50       0.000     0.000
  WS02006242              1.08    137.45      0  02:01       0.486     0.000
  WS02006248              1.36    339.02      0  02:12       1.429     0.000
  WS02006249              1.66   1334.81      0  02:00       4.490     0.000
  WS02006251              0.01     63.53      0  01:50       0.000     0.000
  WS02006252              0.66    771.62      0  02:00       0.835     0.000
  WS02006256              1.05    297.49      0  02:00       0.734     0.000
  YS02001580              0.01    107.24      0  01:47       0.000     0.000
  YS02001583              0.01     93.56      0  01:47       0.000     0.000
  YS02001586              0.72    932.58      0  02:00       1.009     0.000
  YS02001590              0.01      6.46      0  01:47       0.000     0.000
  YS02001600              0.01      1.63      0  01:47       0.000     0.000
  YS02001601              0.97   2196.32      0  02:00       2.564     0.000
  YS02001602              0.94     62.03      0  02:02       0.194     0.000
  YS02001605              0.01      3.77      0  01:47       0.000     0.000
  YS02001610              0.79    954.32      0  02:04       1.401     0.000
  YS02001616              0.08     15.82      0  01:47       0.000     0.000
  YS02001619              0.20    591.76      0  02:00       0.228     0.000
  YS02001625              0.82   1505.19      0  02:07       2.164     0.000
  YS02001629              0.27    499.44      0  02:00       0.242     0.000
  YS02001644              0.34   2651.79      0  02:00       1.505     0.000
  YS02001770              0.15    762.49      0  02:00       0.171     0.000
  YS02001779              0.31    851.51      0  02:03       0.613     0.000
  YS02001890              0.31    863.49      0  02:00       0.403     0.000
  YS02001907              0.56   3411.61      0  02:00       3.184     0.000
  YS02001915              0.12    465.66      0  02:00       0.089     0.000
  YS02001918              0.01    220.63      0  01:51       0.003     0.000
  YS02001920              0.01     49.20      0  01:51       0.000     0.000
  YS02001923              0.01    121.06      0  01:51       0.000     0.000
  YS02001926              0.01    116.75      0  01:51       0.001     0.000
  YS02001929              0.01    122.98      0  01:51       0.000     0.000
  YSB1154                 0.03     41.62      0  02:00       0.002     0.000
  YSB1171                 0.45   1525.57      0  02:00       1.405     0.000
  YSB6556                 0.08     85.84      0  02:00       0.015     0.000
  JK-storage              0.58   1086.18      0  01:55       1.473     0.000
  
  
  **********************
  Storage Volume Summary
  **********************
  
  --------------------------------------------------------------------------------------------------
                         Average     Avg  Evap Exfil       Maximum     Max    Time of Max    Maximum
                          Volume    Pcnt  Pcnt  Pcnt        Volume    Pcnt     Occurrence    Outflow
  Storage Unit           1000 m3    Full  Loss  Loss       1000 m3    Full    days hr:min        LPS
  --------------------------------------------------------------------------------------------------
  CC-storage               3.170      49     0     0         6.392     100       0  03:20    1766.00
  JK-storage               0.025       9     0     0         0.291     100       0  01:55    2300.00
  XR-storage               0.922      64     0     0         1.039      72       0  06:00     190.00
  
  
  ***********************
  Outfall Loading Summary
  ***********************
  
  -----------------------------------------------------------
                         Flow       Avg       Max       Total
                         Freq      Flow      Flow      Volume
  Outfall Node           Pcnt       LPS       LPS    10^6 ltr
  -----------------------------------------------------------
  CC-1                  63.20    617.26    683.00       8.071
  CC-2                  29.55    587.34    683.00       2.738
  JK-1                  60.75    147.46   1000.00       1.847
  JK-2                  32.72    187.78   1000.00       1.330
  WSC                   99.97    598.63   1587.60      14.643
  -----------------------------------------------------------
  System                57.24   2138.47   4108.61      28.629
  
  
  ********************
  Link Flow Summary
  ********************
  
  -----------------------------------------------------------------------------
                                 Maximum  Time of Max   Maximum    Max/    Max/
                                  |Flow|   Occurrence   |Veloc|    Full    Full
  Link                 Type          LPS  days hr:min     m/sec    Flow   Depth
  -----------------------------------------------------------------------------
  1                    CONDUIT   1587.60     0  02:02      3.75    0.55    0.53
  HS02004478WS02006287 CONDUIT   2305.71     0  01:56      2.57    0.65    1.00
  HS02004479HS02004480 CONDUIT    462.81     0  01:51      0.66    0.45    1.00
  HS02004480HS02004478 CONDUIT   2076.88     0  01:49      2.97    8.75    1.00
  HS02004770HS02004777 CONDUIT    754.63     0  01:47      1.08    1.38    1.00
  HS02004777HS02004785 CONDUIT    762.80     0  01:47      1.14    0.94    1.00
  HS02004785HS02004788 CONDUIT    619.82     0  01:47      1.34    4.67    1.00
  HS02004788HS02004792 CONDUIT    964.12     0  01:59      1.44    0.64    1.00
  HS02004792HS02004799 CONDUIT   1567.99     0  01:49      2.24    0.96    1.00
  HS02004799HS02004480 CONDUIT   1728.73     0  01:49      2.47    2.18    1.00
  HS02004802HS02004478 CONDUIT   1234.45     0  02:09      1.76    1.09    1.00
  HS02004807HS02004802 CONDUIT   1234.07     0  02:09      1.76    2.36    1.00
  HS02004817HS02004807 CONDUIT   1197.10     0  02:06      1.71    0.71    1.00
  HS02004817HS02004824 CONDUIT   1196.53     0  02:03      1.71    0.54    1.00
  HS02004824HS02004830 CONDUIT    622.48     0  01:48      0.91    0.81    1.00
  HS02004830HS02004837 CONDUIT    638.66     0  01:48      1.00    0.64    1.00
  HS02004837HS02004842 CONDUIT    827.00     0  01:50      1.18    0.49    1.00
  HS02004842HS02004848 CONDUIT    827.08     0  01:50      1.30    0.48    1.00
  HS02004848HS02004852 CONDUIT   1035.14     0  01:50      1.60    1.17    1.00
  HS02004852HS02004856 CONDUIT    982.47     0  01:50      1.46    1.12    1.00
  HS02004856HS02004862 CONDUIT   1067.66     0  01:50      1.70    1.06    1.00
  HS02004862HS02004870 CONDUIT   1156.23     0  01:50      1.92    1.25    1.00
  HS02004870HS02004876 CONDUIT   1269.95     0  02:08      1.81    0.84    1.00
  HS02004876HS02004881 CONDUIT   1520.25     0  02:06      2.41   16.17    1.00
  HS02004881HS02006253 CONDUIT   1713.58     0  02:00      2.63    0.33    1.00
  HS02004901HS02004770 CONDUIT    265.79     0  02:21      0.38    1.00    1.00
  WS02001211WS02001212 CONDUIT    210.22     0  02:03      0.54    0.16    0.72
  WS02001212WS02001213 CONDUIT    212.23     0  03:14      1.04    0.33    0.59
  WS02001213WS02003059 CONDUIT    216.62     0  03:14      0.47    0.36    0.92
  WS02003059WS02003060 CONDUIT    222.28     0  03:25      0.64    0.15    0.84
  WS02003060WS02003069 CONDUIT   1586.73     0  02:01      2.11    0.62    0.63
  WS02003066WSF200     CONDUIT   1399.51     0  02:00      3.30    0.24    0.40
  WS02003067WS02003066 CONDUIT   1399.96     0  02:00      2.09    0.45    0.57
  WS02003069WS02003072 CONDUIT   1585.15     0  02:01      1.93    0.76    0.68
  WS02003072WS02003073 CONDUIT   1585.25     0  02:02      2.09    3.42    0.63
  WS02004138WS02004139 CONDUIT    190.00     0  00:32      2.17    0.04    0.43
  WS02004139WS02001211 CONDUIT    200.61     0  02:03      0.55    0.25    0.63
  WS02004401WS02004402 CONDUIT   1398.78     0  02:00      1.78    1.68    1.00
  WS02004402WS02004403 CONDUIT   1398.40     0  02:00      1.78    2.01    1.00
  WS02004403WS02004404 CONDUIT   1399.11     0  02:00      1.78    1.01    1.00
  WS02004404WS02004405 CONDUIT   1400.02     0  02:00      1.78   13.72    1.00
  WS02004405WS02004406 CONDUIT   1399.51     0  02:00      1.78    2.76    1.00
  WS02004406WS02004407 CONDUIT   1399.06     0  02:00      1.78    0.63    1.00
  WS02004407WS02004409 CONDUIT   1399.75     0  02:00      1.78    0.50    1.00
  WS02004409WS02004410 CONDUIT   1399.63     0  02:00      1.78    1.81    1.00
  WS02004410WS02004411 CONDUIT   1399.67     0  02:00      1.78    1.91    1.00
  WS02004411WS02004412 CONDUIT   1399.54     0  02:00      1.78    1.99    1.00
  WS02004412WS02004413 CONDUIT   1400.16     0  02:00      1.78    0.94    1.00
  WS02004413WS02003067 CONDUIT   1399.94     0  02:00      2.13    0.60    0.78
  WS02006109WS02006110 CONDUIT   1126.34     0  02:25      2.24    2.17    1.00
  WS02006110WS02006113 CONDUIT   1126.42     0  02:25      2.24    1.02    1.00
  WS02006111WS02006112 CONDUIT   1126.31     0  02:25      2.24    0.54    1.00
  WS02006112WS02006115 CONDUIT   1398.20     0  02:00      1.78    0.83    1.00
  WS02006113WS02006111 CONDUIT   1126.14     0  02:25      2.68    1.35    1.00
  WS02006115WS02006116 CONDUIT   1398.74     0  02:00      1.78    1.80    1.00
  WS02006116WS02004401 CONDUIT   1398.87     0  01:59      1.78    1.93    1.00
  WS02006228WS02006109 CONDUIT   1288.19     0  01:56      2.56    5.63    1.00
  WS02006229WS02006228 CONDUIT   1289.07     0  01:56      2.56    4.27    1.00
  WS02006230WS02006229 CONDUIT   1015.28     0  01:55      2.64   22.59    1.00
  WS02006231WS02006230 CONDUIT    501.53     0  03:30      1.36    7.61    1.00
  WS02006232WS02006231 CONDUIT    501.72     0  03:30      1.30    1.05    1.00
  WS02006234WS02006232 CONDUIT    501.68     0  03:30      1.30    1.01    1.00
  WS02006235WS02006234 CONDUIT    501.77     0  03:30      1.30    5.29    1.00
  WS02006238WS02006235 CONDUIT    416.20     0  02:13      1.22    0.93    1.00
  WS02006239WS02006238 CONDUIT    415.32     0  02:17      1.08    1.33    1.00
  WS02006240WS02006239 CONDUIT    415.18     0  02:17      1.08    1.31    1.00
  WS02006242WS02006240 CONDUIT    415.04     0  02:21      1.08    1.65    1.00
  WS02006243WS02006242 CONDUIT    404.37     0  03:30      1.13    0.86    1.00
  WS02006245WS02006243 CONDUIT    404.38     0  03:30      1.22    1.20    1.00
  WS02006247WS02006245 CONDUIT    404.44     0  03:30      1.19    3.21    1.00
  WS02006248WS02006247 CONDUIT    404.39     0  03:30      1.23    0.88    1.00
  WS02006249WS02006248 CONDUIT    407.13     0  04:02      1.28    2.23    1.00
  WS02006251WS02006249 CONDUIT   1395.80     0  02:00      3.63    4.02    1.00
  WS02006252WS02006251 CONDUIT    414.47     0  02:50      6.61    1.52    1.00
  WS02006253WS02006251 CONDUIT   1774.79     0  02:00      4.61    5.32    1.00
  WS02006256WS02006235 CONDUIT    259.37     0  05:30      3.67    2.75    1.00
  WS02006280WS02006229 CONDUIT   2305.17     0  01:56      4.46    0.49    1.00
  WS02006284WS02006280 CONDUIT   2303.67     0  01:56      3.02    0.96    1.00
  WS02006287WS02006284 CONDUIT   2304.64     0  01:56      2.93    1.07    1.00
  WSF200WS02003060     CONDUIT   1401.78     0  02:00      2.35    0.31    0.52
  YS02001580YS02001583 CONDUIT    126.45     0  01:47      0.72    0.49    1.00
  YS02001583YS02001586 CONDUIT    164.68     0  01:47      0.72    0.25    1.00
  YS02001586YS02001590 CONDUIT    317.99     0  02:06      1.25    0.56    1.00
  YS02001590YS02001593 CONDUIT    318.11     0  02:17      1.13    2.00    1.00
  YS02001593YS02001596 CONDUIT    318.16     0  02:17      1.60    0.50    1.00
  YS02001596YS02001600 CONDUIT    318.10     0  02:17      1.13    0.62    1.00
  YS02001600YS02001601 CONDUIT    317.95     0  02:17      1.12    0.55    1.00
  YS02001601YS02001602 CONDUIT    520.59     0  01:47      1.84    1.88    1.00
  YS02001602YS02001605 CONDUIT    520.55     0  01:47      1.84   11.02    1.00
  YS02001605YS02001607 CONDUIT    520.93     0  01:46      1.84    2.86    1.00
  YS02001607YS02001610 CONDUIT    526.86     0  01:46      0.67    0.50    1.00
  YS02001610YS02001613 CONDUIT    618.53     0  02:04      0.79    0.71    1.00
  YS02001613YS02001616 CONDUIT    618.09     0  02:04      0.79    0.53    1.00
  YS02001616YS02001619 CONDUIT    618.61     0  02:04      0.79    1.07    1.00
  YS02001619YS02001622 CONDUIT   1054.06     0  02:02      1.34    1.55    1.00
  YS02001622YS02001625 CONDUIT   1053.77     0  02:05      1.34    0.56    1.00
  YS02001625YS02001629 CONDUIT    943.36     0  01:47      1.21    0.45    1.00
  YS02001629YS02163301 CONDUIT    932.95     0  02:00      1.19    1.15    1.00
  YS02001633YS02163601 CONDUIT   1402.69     0  01:50      1.79    1.47    1.00
  YS02001641YS02001644 CONDUIT   1402.95     0  01:50      1.79    4.54    1.00
  YS02001644YS02001647 CONDUIT   1843.68     0  01:50      2.35    1.08    1.00
  YS02001647YS02001649 CONDUIT   1843.35     0  01:50      2.36    0.97    1.00
  YS02001649YS02001757 CONDUIT   2107.69     0  01:50      2.69    1.28    1.00
  YS02001652YS02001649 CONDUIT   1499.49     0  02:00      1.91    0.74    1.00
  YS02001655YS02001652 CONDUIT   1498.13     0  02:00      1.91    0.73    1.00
  YS02001658YS02001655 CONDUIT   1496.06     0  02:00      1.93    0.63    1.00
  YS02001661YS02001658 CONDUIT   1496.56     0  02:00      2.39    0.59    1.00
  YS02001664YS02001661 CONDUIT   1496.81     0  02:00      2.41    0.47    1.00
  YS02001745YS02001748 CONDUIT    943.79     0  02:00      2.28    0.36    0.99
  YS02001748YS02001751 CONDUIT    944.26     0  02:00      1.72    0.48    1.00
  YS02001751YS02001754 CONDUIT    943.28     0  02:00      1.45    0.45    1.00
  YS02001754YS02001757 CONDUIT    942.69     0  02:00      1.20    0.38    1.00
  YS02001757CaochengTiaoxuchi CONDUIT   3658.79     0  01:57      5.09    1.58    1.00
  YS02001759YS02001757 CONDUIT   1555.15     0  02:00      1.98    1.11    1.00
  YS02001762YS02001759 CONDUIT    789.18     0  01:53      1.00    0.91    1.00
  YS02001765YS02001762 CONDUIT    792.77     0  01:53      1.01    0.74    1.00
  YS02001767YS02001765 CONDUIT    795.95     0  01:53      1.01    1.00    1.00
  YS02001770YS02001767 CONDUIT    797.09     0  01:53      1.01    3.16    1.00
  YS02001774YS02001770 CONDUIT    852.25     0  02:04      1.09    0.54    1.00
  YS02001779YS02001774 CONDUIT    851.82     0  02:03      1.08    0.43    1.00
  YS02001783YS02001784 CONDUIT   1170.68     0  01:55      2.33    1.61    1.00
  YS02001784YS02001785 CONDUIT   1173.05     0  01:55      2.33    2.73    1.00
  YS02001786YS02001788 CONDUIT   1177.17     0  01:55      2.48    2.27    1.00
  YS02001788YS02001790 CONDUIT   1171.52     0  01:52      2.71    0.86    1.00
  YS02001790YS02001791 CONDUIT   1283.70     0  01:52      3.42    1.40    1.00
  YS02001791YS02001793 CONDUIT   1360.20     0  02:31      6.71    0.58    1.00
  YS02001793JiankangQianchi CONDUIT   1703.43     0  02:31     20.73    0.14    1.00
  YS02001882YS02001884 CONDUIT     51.40     0  01:48      0.15    0.06    1.00
  YS02001884YS02001887 CONDUIT     68.84     0  01:48      0.11    0.09    1.00
  YS02001887YS02001890 CONDUIT   1379.95     0  02:00      1.76    2.36    1.00
  YS02001890YS02001895 CONDUIT    517.86     0  01:59      0.66    0.24    1.00
  YS02001895YS02001898 CONDUIT    517.81     0  01:59      0.66    0.90    1.00
  YS02001898YS02001901 CONDUIT    518.04     0  01:58      0.66    0.33    1.00
  YS02001901YS02001904 CONDUIT    518.06     0  01:59      0.66    0.80    1.00
  YS02001904YS02001907 CONDUIT    517.93     0  02:01      0.66    0.18    1.00
  YS02001907YS02006553 CONDUIT    903.69     0  02:00      1.00    1.06    1.00
  YS02001910YS02001907 CONDUIT   1993.09     0  02:00      2.54    1.12    1.00
  YS02001915YS02001910 CONDUIT   1993.30     0  02:01      2.54    0.99    1.00
  YS02001918YS02001915 CONDUIT    808.25     0  02:00      1.03    0.45    1.00
  YS02001920YS02001918 CONDUIT    806.73     0  02:00      1.03    0.78    1.00
  YS02001923YS02001920 CONDUIT    803.04     0  02:00      1.02    0.36    1.00
  YS02001926YS02001923 CONDUIT    801.89     0  02:00      1.02    1.15    1.00
  YS02001929YS02001926 CONDUIT    800.56     0  02:00      1.09    0.38    1.00
  YS02006553YS02006556 CONDUIT    901.76     0  02:00      1.15    0.77    1.00
  YS02006556YS02006558 CONDUIT    902.86     0  02:00      1.15    0.71    1.00
  YS02006558YS02006561 CONDUIT   1175.77     0  01:50      4.16    2.60    1.00
  YS02006561YS02001783 CONDUIT   1170.57     0  01:55      2.33    0.61    1.00
  YS02163301YS02001633 CONDUIT    933.77     0  02:00      1.19    0.88    1.00
  YS02163601YS02164001 CONDUIT   1403.71     0  01:50      1.79    1.24    1.00
  YS02164001YS02001641 CONDUIT   1402.35     0  01:50      1.79    1.91    1.00
  YSB1154YSB6556       CONDUIT    725.68     0  02:00      1.89    1.30    1.00
  YSB1171HS02004479    CONDUIT    465.78     0  01:51      0.93    0.31    1.00
  YSB1174YSB1171       CONDUIT    648.35     0  02:00      1.68    0.99    1.00
  YSB6556YSB1171       CONDUIT    639.84     0  02:01      1.66    0.66    1.00
  CC-R1                PUMP       683.00     0  00:20              1.00
  CC-R2                PUMP       683.00     0  00:30              1.00
  CC-S1                PUMP       200.00     0  00:00              1.00
  CC-S2                PUMP       200.00     0  00:40              1.00
  JK-R1                PUMP      1000.00     0  00:00              1.00
  JK-R2                PUMP      1000.00     0  01:30              1.00
  JK-S                 PUMP       300.00     0  01:40              1.00
  XR-1                 PUMP        95.00     0  00:10              1.00
  XR-2                 PUMP        95.00     0  00:29              1.00
  XR-3                 PUMP         0.00     0  00:00              0.00
  XR-4                 PUMP         0.00     0  00:00              0.00
  
  
  ***************************
  Flow Classification Summary
  ***************************
  
  -------------------------------------------------------------------------------------
                      Adjusted    ---------- Fraction of Time in Flow Class ---------- 
                       /Actual         Up    Down  Sub   Sup   Up    Down  Norm  Inlet 
  Conduit               Length    Dry  Dry   Dry   Crit  Crit  Crit  Crit  Ltd   Ctrl  
  -------------------------------------------------------------------------------------
  1                       1.00   0.00  0.00  0.00  0.00  1.00  0.00  0.00  0.49  0.00
  HS02004478WS02006287    1.00   0.22  0.00  0.00  0.58  0.20  0.00  0.00  0.45  0.00
  HS02004479HS02004480    1.00   0.08  0.00  0.00  0.92  0.00  0.00  0.00  0.15  0.00
  HS02004480HS02004478    1.00   0.20  0.00  0.00  0.52  0.00  0.00  0.28  0.00  0.00
  HS02004770HS02004777    1.00   0.00  0.20  0.00  0.80  0.00  0.00  0.00  0.03  0.00
  HS02004777HS02004785    1.00   0.00  0.00  0.00  1.00  0.00  0.00  0.00  0.15  0.00
  HS02004785HS02004788    1.00   0.00  0.00  0.00  1.00  0.00  0.00  0.00  0.00  0.00
  HS02004788HS02004792    1.00   0.00  0.00  0.00  0.98  0.02  0.00  0.00  0.83  0.00
  HS02004792HS02004799    1.00   0.00  0.00  0.00  0.97  0.03  0.00  0.00  0.77  0.00
  HS02004799HS02004480    1.00   0.01  0.08  0.00  0.79  0.00  0.13  0.00  0.00  0.00
  HS02004802HS02004478    1.00   0.20  0.00  0.00  0.79  0.00  0.00  0.00  0.03  0.00
  HS02004807HS02004802    1.00   0.20  0.00  0.00  0.79  0.00  0.00  0.01  0.00  0.00
  HS02004817HS02004807    1.00   0.00  0.20  0.00  0.80  0.00  0.00  0.00  0.01  0.00
  HS02004817HS02004824    1.00   0.00  0.00  0.00  1.00  0.00  0.00  0.00  0.73  0.00
  HS02004824HS02004830    1.00   0.00  0.00  0.00  1.00  0.00  0.00  0.00  0.01  0.00
  HS02004830HS02004837    1.00   0.00  0.00  0.00  1.00  0.00  0.00  0.00  0.80  0.00
  HS02004837HS02004842    1.00   0.00  0.00  0.00  0.99  0.01  0.00  0.00  0.14  0.00
  HS02004842HS02004848    1.00   0.00  0.20  0.00  0.80  0.00  0.00  0.00  0.39  0.00
  HS02004848HS02004852    1.00   0.20  0.00  0.00  0.80  0.00  0.00  0.00  0.58  0.00
  HS02004852HS02004856    1.00   0.20  0.01  0.00  0.79  0.00  0.00  0.00  0.54  0.00
  HS02004856HS02004862    1.00   0.00  0.22  0.00  0.78  0.00  0.00  0.00  0.62  0.00
  HS02004862HS02004870    1.00   0.00  0.00  0.00  1.00  0.00  0.00  0.00  0.04  0.00
  HS02004870HS02004876    1.00   0.01  0.00  0.00  0.96  0.02  0.00  0.00  0.77  0.00
  HS02004876HS02004881    1.00   0.05  0.00  0.00  0.78  0.17  0.00  0.00  0.00  0.00
  HS02004881HS02006253    1.00   0.01  0.09  0.00  0.74  0.04  0.00  0.12  0.57  0.00
  HS02004901HS02004770    1.00   0.20  0.00  0.00  0.80  0.00  0.00  0.00  0.00  0.00
  WS02001211WS02001212    1.00   0.00  0.06  0.00  0.94  0.00  0.00  0.00  0.00  0.00
  WS02001212WS02001213    1.00   0.06  0.00  0.00  0.54  0.00  0.40  0.00  0.00  0.00
  WS02001213WS02003059    1.00   0.01  0.01  0.00  0.98  0.00  0.00  0.00  0.00  0.00
  WS02003059WS02003060    1.00   0.00  0.00  0.00  0.99  0.01  0.00  0.00  0.04  0.00
  WS02003060WS02003069    1.00   0.00  0.00  0.00  0.96  0.04  0.00  0.00  0.09  0.00
  WS02003066WSF200        1.00   0.13  0.00  0.00  0.00  0.87  0.00  0.00  0.53  0.00
  WS02003067WS02003066    1.00   0.12  0.01  0.00  0.87  0.00  0.00  0.00  0.00  0.00
  WS02003069WS02003072    1.00   0.00  0.00  0.00  0.99  0.01  0.00  0.00  0.23  0.00
  WS02003072WS02003073    1.00   0.00  0.00  0.00  0.00  0.00  0.00  1.00  0.00  0.00
  WS02004138WS02004139    1.00   0.04  0.01  0.00  0.93  0.02  0.00  0.00  0.97  0.00
  WS02004139WS02001211    1.00   0.00  0.01  0.00  0.98  0.00  0.00  0.00  0.00  0.00
  WS02004401WS02004402    1.00   0.08  0.00  0.00  0.92  0.00  0.00  0.00  0.00  0.00
  WS02004402WS02004403    1.00   0.08  0.00  0.00  0.92  0.00  0.00  0.00  0.00  0.00
  WS02004403WS02004404    1.00   0.00  0.08  0.00  0.91  0.00  0.00  0.00  0.00  0.00
  WS02004404WS02004405    1.00   0.00  0.00  0.00  1.00  0.00  0.00  0.00  0.01  0.00
  WS02004405WS02004406    1.00   0.00  0.00  0.00  1.00  0.00  0.00  0.00  0.01  0.00
  WS02004406WS02004407    1.00   0.00  0.10  0.00  0.90  0.00  0.00  0.00  0.00  0.00
  WS02004407WS02004409    1.00   0.10  0.00  0.00  0.89  0.00  0.00  0.00  0.73  0.00
  WS02004409WS02004410    1.00   0.10  0.00  0.00  0.90  0.00  0.00  0.00  0.00  0.00
  WS02004410WS02004411    1.00   0.10  0.00  0.00  0.90  0.00  0.00  0.00  0.00  0.00
  WS02004411WS02004412    1.00   0.10  0.00  0.00  0.90  0.00  0.00  0.00  0.00  0.00
  WS02004412WS02004413    1.00   0.10  0.00  0.00  0.89  0.00  0.00  0.00  0.00  0.00
  WS02004413WS02003067    1.00   0.10  0.01  0.00  0.00  0.00  0.88  0.00  0.00  0.00
  WS02006109WS02006110    1.00   0.00  0.02  0.00  0.95  0.00  0.03  0.00  0.00  0.00
  WS02006110WS02006113    1.00   0.02  0.03  0.00  0.94  0.00  0.00  0.00  0.00  0.00
  WS02006111WS02006112    1.00   0.06  0.00  0.00  0.93  0.00  0.00  0.01  0.65  0.00
  WS02006112WS02006115    1.00   0.06  0.01  0.00  0.92  0.00  0.01  0.00  0.00  0.00
  WS02006113WS02006111    1.00   0.06  0.00  0.00  0.20  0.74  0.00  0.00  0.20  0.00
  WS02006115WS02006116    1.00   0.07  0.00  0.00  0.91  0.00  0.00  0.02  0.00  0.00
  WS02006116WS02004401    1.00   0.07  0.00  0.00  0.92  0.00  0.00  0.00  0.00  0.00
  WS02006228WS02006109    1.00   0.00  0.00  0.00  1.00  0.00  0.00  0.00  0.01  0.00
  WS02006229WS02006228    1.00   0.00  0.00  0.00  0.98  0.00  0.00  0.02  0.00  0.00
  WS02006230WS02006229    1.00   0.00  0.00  0.00  0.95  0.00  0.00  0.05  0.00  0.00
  WS02006231WS02006230    1.00   0.04  0.00  0.00  0.45  0.00  0.51  0.00  0.00  0.00
  WS02006232WS02006231    1.00   0.03  0.01  0.00  0.96  0.00  0.01  0.00  0.00  0.00
  WS02006234WS02006232    1.00   0.03  0.00  0.00  0.97  0.01  0.00  0.00  0.00  0.00
  WS02006235WS02006234    1.00   0.03  0.00  0.00  0.96  0.00  0.02  0.00  0.00  0.00
  WS02006238WS02006235    1.00   0.02  0.00  0.00  0.97  0.00  0.00  0.00  0.00  0.00
  WS02006239WS02006238    1.00   0.02  0.00  0.00  0.97  0.00  0.00  0.01  0.00  0.00
  WS02006240WS02006239    1.00   0.02  0.00  0.00  0.95  0.00  0.00  0.04  0.01  0.00
  WS02006242WS02006240    1.00   0.01  0.01  0.00  0.96  0.00  0.02  0.00  0.00  0.00
  WS02006243WS02006242    1.00   0.01  0.00  0.00  0.98  0.00  0.00  0.02  0.08  0.00
  WS02006245WS02006243    1.00   0.01  0.00  0.00  0.93  0.00  0.00  0.06  0.01  0.00
  WS02006247WS02006245    1.00   0.00  0.00  0.00  0.95  0.00  0.00  0.05  0.00  0.00
  WS02006248WS02006247    1.00   0.00  0.00  0.00  0.98  0.00  0.00  0.01  0.13  0.00
  WS02006249WS02006248    1.00   0.00  0.00  0.00  0.91  0.00  0.09  0.00  0.00  0.00
  WS02006251WS02006249    1.00   0.00  0.00  0.00  1.00  0.00  0.00  0.00  0.13  0.00
  WS02006252WS02006251    1.00   0.00  0.11  0.00  0.23  0.00  0.66  0.00  0.03  0.00
  WS02006253WS02006251    1.00   0.00  0.00  0.00  1.00  0.00  0.00  0.00  0.00  0.00
  WS02006256WS02006235    1.00   0.02  0.00  0.00  0.97  0.00  0.00  0.00  0.00  0.00
  WS02006280WS02006229    1.00   0.21  0.00  0.00  0.16  0.03  0.00  0.60  0.02  0.00
  WS02006284WS02006280    1.00   0.21  0.00  0.00  0.12  0.01  0.00  0.67  0.00  0.00
  WS02006287WS02006284    1.00   0.17  0.04  0.00  0.44  0.35  0.00  0.00  0.54  0.00
  WSF200WS02003060        1.00   0.00  0.13  0.00  0.51  0.35  0.00  0.00  0.33  0.00
  YS02001580YS02001583    1.00   0.30  0.43  0.00  0.27  0.00  0.00  0.00  0.51  0.00
  YS02001583YS02001586    1.00   0.23  0.42  0.00  0.34  0.00  0.00  0.00  0.51  0.00
  YS02001586YS02001590    1.00   0.20  0.00  0.00  0.57  0.05  0.00  0.18  0.44  0.00
  YS02001590YS02001593    1.00   0.20  0.00  0.00  0.15  0.00  0.64  0.00  0.00  0.00
  YS02001593YS02001596    1.00   0.20  0.00  0.00  0.27  0.02  0.00  0.51  0.10  0.00
  YS02001596YS02001600    1.00   0.21  0.00  0.00  0.39  0.01  0.00  0.39  0.07  0.00
  YS02001600YS02001601    1.00   0.20  0.00  0.00  0.79  0.00  0.00  0.00  0.33  0.00
  YS02001601YS02001602    1.00   0.20  0.00  0.00  0.80  0.00  0.00  0.00  0.00  0.00
  YS02001602YS02001605    1.00   0.20  0.00  0.00  0.79  0.00  0.00  0.00  0.00  0.00
  YS02001605YS02001607    1.00   0.21  0.00  0.00  0.79  0.00  0.00  0.00  0.00  0.00
  YS02001607YS02001610    1.00   0.20  0.00  0.00  0.79  0.00  0.00  0.00  0.02  0.00
  YS02001610YS02001613    1.00   0.20  0.00  0.00  0.80  0.00  0.00  0.00  0.00  0.00
  YS02001613YS02001616    1.00   0.20  0.00  0.00  0.80  0.00  0.00  0.00  0.00  0.00
  YS02001616YS02001619    1.00   0.20  0.00  0.00  0.80  0.00  0.00  0.00  0.00  0.00
  YS02001619YS02001622    1.00   0.20  0.00  0.00  0.80  0.00  0.00  0.00  0.04  0.00
  YS02001622YS02001625    1.00   0.20  0.00  0.00  0.80  0.00  0.00  0.00  0.05  0.00
  YS02001625YS02001629    1.00   0.20  0.02  0.00  0.42  0.00  0.36  0.00  0.00  0.00
  YS02001629YS02163301    1.00   0.21  0.00  0.00  0.78  0.00  0.00  0.00  0.00  0.00
  YS02001633YS02163601    1.00   0.00  0.02  0.00  0.98  0.00  0.00  0.00  0.19  0.00
  YS02001641YS02001644    1.00   0.00  0.01  0.00  0.99  0.00  0.00  0.00  0.00  0.00
  YS02001644YS02001647    1.00   0.00  0.22  0.00  0.78  0.00  0.00  0.00  0.00  0.00
  YS02001647YS02001649    1.00   0.00  0.22  0.00  0.74  0.05  0.00  0.00  0.25  0.00
  YS02001649YS02001757    1.00   0.00  0.00  0.00  1.00  0.00  0.00  0.00  0.33  0.00
  YS02001652YS02001649    1.00   0.00  0.00  0.00  0.98  0.02  0.00  0.00  0.39  0.00
  YS02001655YS02001652    1.00   0.00  0.00  0.00  0.50  0.01  0.00  0.49  0.07  0.00
  YS02001658YS02001655    1.00   0.00  0.21  0.00  0.70  0.10  0.00  0.00  0.31  0.00
  YS02001661YS02001658    1.00   0.21  0.00  0.00  0.57  0.22  0.00  0.00  0.36  0.00
  YS02001664YS02001661    1.00   0.20  0.00  0.00  0.73  0.07  0.00  0.00  0.77  0.00
  YS02001745YS02001748    1.00   0.00  0.00  0.00  0.35  0.00  0.00  0.65  0.07  0.00
  YS02001748YS02001751    1.00   0.00  0.00  0.00  0.89  0.11  0.00  0.00  0.44  0.00
  YS02001751YS02001754    1.00   0.00  0.00  0.00  0.47  0.01  0.00  0.52  0.05  0.00
  YS02001754YS02001757    1.00   0.00  0.00  0.00  1.00  0.00  0.00  0.00  0.47  0.00
  YS02001757CaochengTiaoxuchi    1.00   0.00  0.00  0.00  0.86  0.14  0.00  0.00  0.22  0.00
  YS02001759YS02001757    1.00   0.00  0.00  0.00  1.00  0.00  0.00  0.00  0.29  0.00
  YS02001762YS02001759    1.00   0.00  0.00  0.00  1.00  0.00  0.00  0.00  0.05  0.00
  YS02001765YS02001762    1.00   0.00  0.00  0.00  1.00  0.00  0.00  0.00  0.34  0.00
  YS02001767YS02001765    1.00   0.00  0.00  0.00  1.00  0.00  0.00  0.00  0.01  0.00
  YS02001770YS02001767    1.00   0.00  0.00  0.00  1.00  0.00  0.00  0.00  0.00  0.00
  YS02001774YS02001770    1.00   0.00  0.20  0.00  0.80  0.00  0.00  0.00  0.04  0.00
  YS02001779YS02001774    1.00   0.00  0.00  0.00  1.00  0.00  0.00  0.00  0.44  0.00
  YS02001783YS02001784    1.00   0.00  0.23  0.00  0.77  0.00  0.00  0.00  0.40  0.00
  YS02001784YS02001785    1.00   0.00  0.00  0.00  1.00  0.00  0.00  0.00  0.21  0.00
  YS02001786YS02001788    1.00   0.00  0.00  0.00  0.74  0.26  0.00  0.00  0.00  0.00
  YS02001788YS02001790    1.00   0.00  0.00  0.00  0.30  0.70  0.00  0.00  0.72  0.00
  YS02001790YS02001791    1.00   0.00  0.00  0.00  0.08  0.92  0.00  0.00  0.19  0.00
  YS02001791YS02001793    1.00   0.00  0.00  0.00  0.05  0.95  0.00  0.00  0.00  0.00
  YS02001793JiankangQianchi    1.00   0.00  0.00  0.00  0.21  0.79  0.00  0.00  0.27  0.00
  YS02001882YS02001884    1.00   0.21  0.00  0.00  0.79  0.00  0.00  0.00  0.00  0.00
  YS02001884YS02001887    1.00   0.11  0.08  0.00  0.81  0.00  0.00  0.00  0.00  0.00
  YS02001887YS02001890    1.00   0.00  0.01  0.00  0.93  0.00  0.06  0.00  0.00  0.00
  YS02001890YS02001895    1.00   0.01  0.21  0.00  0.78  0.00  0.00  0.00  0.00  0.00
  YS02001895YS02001898    1.00   0.22  0.00  0.00  0.76  0.00  0.02  0.00  0.00  0.00
  YS02001898YS02001901    1.00   0.22  0.00  0.00  0.78  0.00  0.00  0.00  0.01  0.00
  YS02001901YS02001904    1.00   0.22  0.00  0.00  0.78  0.00  0.00  0.00  0.00  0.00
  YS02001904YS02001907    1.00   0.01  0.21  0.00  0.78  0.00  0.00  0.00  0.00  0.00
  YS02001907YS02006553    1.00   0.01  0.05  0.00  0.95  0.00  0.00  0.00  0.00  0.00
  YS02001910YS02001907    1.00   0.00  0.00  0.00  0.93  0.01  0.00  0.06  0.16  0.00
  YS02001915YS02001910    1.00   0.00  0.00  0.00  0.96  0.04  0.00  0.00  0.18  0.00
  YS02001918YS02001915    1.00   0.00  0.01  0.00  0.95  0.04  0.00  0.00  0.63  0.00
  YS02001920YS02001918    1.00   0.00  0.01  0.00  0.99  0.00  0.00  0.00  0.00  0.00
  YS02001923YS02001920    1.00   0.00  0.00  0.00  1.00  0.00  0.00  0.00  0.86  0.00
  YS02001926YS02001923    1.00   0.00  0.13  0.00  0.06  0.00  0.80  0.00  0.00  0.00
  YS02001929YS02001926    1.00   0.00  0.20  0.00  0.80  0.00  0.00  0.00  0.72  0.00
  YS02006553YS02006556    1.00   0.03  0.00  0.00  0.97  0.00  0.00  0.00  0.04  0.00
  YS02006556YS02006558    1.00   0.00  0.01  0.00  0.99  0.00  0.00  0.00  0.00  0.00
  YS02006558YS02006561    1.00   0.23  0.00  0.00  0.06  0.71  0.00  0.00  0.23  0.00
  YS02006561YS02001783    1.00   0.23  0.00  0.00  0.09  0.68  0.00  0.00  0.56  0.00
  YS02163301YS02001633    1.00   0.00  0.21  0.00  0.79  0.00  0.00  0.00  0.00  0.00
  YS02163601YS02164001    1.00   0.00  0.15  0.00  0.85  0.00  0.00  0.00  0.00  0.00
  YS02164001YS02001641    1.00   0.02  0.13  0.00  0.85  0.00  0.00  0.00  0.07  0.00
  YSB1154YSB6556          1.00   0.20  0.00  0.00  0.80  0.00  0.00  0.00  0.02  0.00
  YSB1171HS02004479       1.00   0.09  0.00  0.00  0.90  0.00  0.00  0.01  0.13  0.00
  YSB1174YSB1171          1.00   0.10  0.06  0.00  0.84  0.00  0.00  0.00  0.00  0.00
  YSB6556YSB1171          1.00   0.09  0.11  0.00  0.80  0.00  0.00  0.00  0.00  0.00
  
  
  *************************
  Conduit Surcharge Summary
  *************************
  
  ----------------------------------------------------------------------------
                                                           Hours        Hours 
                         --------- Hours Full --------   Above Full   Capacity
  Conduit                Both Ends  Upstream  Dnstream   Normal Flow   Limited
  ----------------------------------------------------------------------------
  HS02004478WS02006287        0.70      0.70      0.87      0.01         0.01
  HS02004479HS02004480        0.87      0.87      0.89      0.01         0.01
  HS02004480HS02004478        0.80      0.86      0.80      1.79         0.80
  HS02004770HS02004777        0.77      0.77      0.78      0.10         0.06
  HS02004777HS02004785        0.73      0.73      0.78      0.01         0.01
  HS02004785HS02004788        0.72      0.73      0.72      1.44         0.57
  HS02004788HS02004792        0.71      0.71      0.83      0.01         0.01
  HS02004792HS02004799        0.83      0.83      0.96      0.01         0.01
  HS02004799HS02004480        0.86      0.86      0.96      1.07         0.01
  HS02004802HS02004478        0.81      0.81      0.88      0.29         0.01
  HS02004807HS02004802        0.86      0.86      0.87      0.45         0.45
  HS02004817HS02004807        0.86      0.86      1.47      0.01         0.01
  HS02004817HS02004824        0.72      0.72      1.47      0.01         0.01
  HS02004824HS02004830        0.69      0.69      0.72      0.01         0.01
  HS02004830HS02004837        0.64      0.64      0.69      0.01         0.01
  HS02004837HS02004842        0.64      0.64      0.78      0.01         0.01
  HS02004842HS02004848        0.61      0.61      0.78      0.01         0.01
  HS02004848HS02004852        0.61      0.61      0.63      0.03         0.01
  HS02004852HS02004856        0.63      0.63      0.65      0.02         0.01
  HS02004856HS02004862        0.62      0.62      0.66      0.01         0.01
  HS02004862HS02004870        0.66      0.66      0.66      0.26         0.25
  HS02004870HS02004876        0.66      0.66      0.72      0.01         0.01
  HS02004876HS02004881        0.70      0.72      0.70      1.63         0.69
  HS02004881HS02006253        0.69      0.69      1.65      0.01         0.01
  HS02004901HS02004770        0.77      0.77      0.78      0.13         0.01
  WS02003072WS02003073        0.01      0.01      0.01      3.47         0.01
  WS02004401WS02004402        1.74      1.74      1.76      1.54         1.53
  WS02004402WS02004403        1.76      1.76      1.76      1.73         1.73
  WS02004403WS02004404        1.76      1.76      1.93      0.04         0.08
  WS02004404WS02004405        1.88      1.93      1.88      5.22         1.88
  WS02004405WS02004406        1.83      1.88      1.83      2.07         1.83
  WS02004406WS02004407        0.14      0.14      1.83      0.01         0.01
  WS02004407WS02004409        0.14      0.14      1.18      0.01         0.01
  WS02004409WS02004410        1.15      1.18      1.15      1.64         1.15
  WS02004410WS02004411        1.09      1.15      1.09      1.70         1.09
  WS02004411WS02004412        1.00      1.09      1.00      1.72         1.00
  WS02004412WS02004413        1.00      1.00      1.49      0.01         0.01
  WS02004413WS02003067        0.01      0.01      1.49      0.01         0.01
  WS02006109WS02006110        2.04      2.04      2.67      2.05         0.01
  WS02006110WS02006113        1.47      1.47      2.54      0.36         0.01
  WS02006111WS02006112        1.45      1.45      3.16      0.01         0.01
  WS02006112WS02006115        1.66      1.66      2.10      0.01         0.01
  WS02006113WS02006111        1.46      1.47      1.46      1.52         1.45
  WS02006115WS02006116        1.67      1.67      1.68      1.64         1.62
  WS02006116WS02004401        1.73      1.73      1.74      1.70         1.70
  WS02006228WS02006109        2.37      2.67      2.37      3.63         2.37
  WS02006229WS02006228        2.36      2.41      2.36      3.07         2.36
  WS02006230WS02006229        2.83      2.97      2.83      5.36         1.54
  WS02006231WS02006230        1.98      1.98      2.01      5.01         1.27
  WS02006232WS02006231        2.00      2.00      2.47      0.01         0.20
  WS02006234WS02006232        2.08      2.08      2.47      0.01         0.01
  WS02006235WS02006234        2.04      2.04      2.11      4.62         1.25
  WS02006238WS02006235        2.15      2.15      2.44      0.01         0.50
  WS02006239WS02006238        2.21      2.35      2.22      1.87         0.29
  WS02006240WS02006239        2.03      2.08      2.05      1.85         0.21
  WS02006242WS02006240        2.03      2.03      2.53      2.32         1.09
  WS02006243WS02006242        2.07      2.07      2.39      0.01         0.01
  WS02006245WS02006243        2.01      2.05      2.03      0.81         0.25
  WS02006247WS02006245        2.01      2.14      2.01      4.10         0.63
  WS02006248WS02006247        1.99      1.99      2.09      0.01         0.01
  WS02006249WS02006248        1.96      1.96      2.03      2.63         0.01
  WS02006251WS02006249        2.02      2.06      2.03      2.05         1.51
  WS02006252WS02006251        2.33      2.34      2.49      1.39         0.21
  WS02006253WS02006251        2.03      2.04      2.14      1.01         0.03
  WS02006256WS02006235        5.04      5.05      5.87      0.40         0.01
  WS02006280WS02006229        1.00      1.00      1.13      0.01         0.01
  WS02006284WS02006280        0.90      0.90      0.99      0.01         0.01
  WS02006287WS02006284        0.80      0.80      0.91      0.48         0.48
  YS02001580YS02001583        0.87      0.87      0.92      0.01         0.01
  YS02001583YS02001586        0.87      0.87      1.06      0.01         0.01
  YS02001586YS02001590        1.07      1.07      1.17      0.01         0.01
  YS02001590YS02001593        1.18      1.18      1.20      1.17         0.01
  YS02001593YS02001596        1.19      1.19      1.36      0.01         0.01
  YS02001596YS02001600        1.42      1.42      1.77      0.01         0.01
  YS02001600YS02001601        1.95      1.95      2.38      0.01         0.01
  YS02001601YS02001602        2.28      2.28      2.42      1.35         0.01
  YS02001602YS02001605        2.26      2.26      2.28      2.42         0.03
  YS02001605YS02001607        2.23      2.26      2.30      1.56         1.46
  YS02001607YS02001610        1.39      1.39      1.64      0.01         0.01
  YS02001610YS02001613        1.40      1.40      1.64      0.01         0.01
  YS02001613YS02001616        1.31      1.31      1.40      0.01         0.01
  YS02001616YS02001619        1.30      1.30      1.31      0.18         0.15
  YS02001619YS02001622        1.30      1.30      1.32      1.01         0.89
  YS02001622YS02001625        1.32      1.32      1.95      0.01         0.01
  YS02001625YS02001629        1.27      1.27      1.95      0.01         0.01
  YS02001629YS02163301        2.04      2.04      2.09      0.12         0.08
  YS02001633YS02163601        2.15      2.15      2.25      0.10         0.11
  YS02001641YS02001644        2.15      2.16      2.16      1.59         1.40
  YS02001644YS02001647        1.83      1.83      2.16      0.04         0.01
  YS02001647YS02001649        1.83      1.83      2.14      0.01         0.01
  YS02001649YS02001757        2.13      2.14      2.27      0.12         0.05
  YS02001652YS02001649        1.84      1.84      2.14      0.01         0.01
  YS02001655YS02001652        1.13      1.13      1.80      0.01         0.01
  YS02001658YS02001655        0.38      0.38      1.13      0.01         0.01
  YS02001661YS02001658        0.17      0.17      0.38      0.01         0.01
  YS02001664YS02001661        0.02      0.02      0.21      0.01         0.01
  YS02001745YS02001748        0.01      0.01      0.30      0.01         0.01
  YS02001748YS02001751        0.36      0.36      0.92      0.01         0.01
  YS02001751YS02001754        0.92      0.92      1.75      0.01         0.01
  YS02001754YS02001757        1.82      1.82      2.27      0.01         0.01
  YS02001757CaochengTiaoxuchi        2.11      2.27      2.98      0.53         0.32
  YS02001759YS02001757        2.16      2.16      2.27      0.16         0.18
  YS02001762YS02001759        2.11      2.11      2.16      0.01         0.02
  YS02001765YS02001762        2.05      2.05      2.11      0.01         0.01
  YS02001767YS02001765        2.01      2.01      2.05      0.01         0.02
  YS02001770YS02001767        2.00      2.00      2.01      0.71         0.66
  YS02001774YS02001770        1.95      1.95      2.08      0.01         0.01
  YS02001779YS02001774        1.73      1.73      2.08      0.01         0.01
  YS02001783YS02001784        0.74      0.76      0.74      0.90         0.74
  YS02001784YS02001785        0.67      0.74      0.67      1.13         0.67
  YS02001786YS02001788        0.58      0.67      0.58      1.00         0.58
  YS02001788YS02001790        0.58      0.58      0.60      0.01         0.01
  YS02001790YS02001791        0.59      0.60      0.59      0.68         0.52
  YS02001791YS02001793        0.59      0.59      0.61      0.01         0.01
  YS02001793JiankangQianchi        0.60      0.60      1.04      0.01         0.01
  YS02001882YS02001884        0.72      0.72      0.73      0.01         0.01
  YS02001884YS02001887        0.75      0.75      0.76      0.01         0.01
  YS02001887YS02001890        0.77      0.77      0.78      0.25         0.01
  YS02001890YS02001895        0.70      0.70      0.79      0.01         0.01
  YS02001895YS02001898        0.69      0.69      0.70      0.01         0.01
  YS02001898YS02001901        0.71      0.71      0.75      0.01         0.01
  YS02001901YS02001904        0.74      0.74      0.75      0.01         0.01
  YS02001904YS02001907        0.74      0.74      0.98      0.01         0.01
  YS02001907YS02006553        1.15      1.15      1.21      0.01         0.04
  YS02001910YS02001907        0.79      0.79      0.96      0.15         0.16
  YS02001915YS02001910        0.72      0.72      0.79      0.01         0.02
  YS02001918YS02001915        0.63      0.63      0.72      0.01         0.01
  YS02001920YS02001918        0.63      0.63      0.64      0.01         0.01
  YS02001923YS02001920        0.57      0.57      0.64      0.01         0.01
  YS02001926YS02001923        0.27      0.27      0.29      0.09         0.01
  YS02001929YS02001926        0.17      0.17      0.29      0.01         0.01
  YS02006553YS02006556        0.87      0.87      0.98      0.01         0.01
  YS02006556YS02006558        0.93      0.93      1.00      0.01         0.01
  YS02006558YS02006561        0.68      0.86      0.68      1.08         0.68
  YS02006561YS02001783        0.66      0.66      0.76      0.01         0.01
  YS02163301YS02001633        2.09      2.09      2.18      0.01         0.01
  YS02163601YS02164001        2.14      2.14      2.25      0.08         0.01
  YS02164001YS02001641        2.14      2.14      2.16      0.75         0.69
  YSB1154YSB6556              0.94      0.94      1.09      0.14         0.01
  YSB1171HS02004479           0.82      0.82      1.10      0.01         0.01
  YSB1174YSB1171              1.00      1.00      1.38      0.01         0.01
  YSB6556YSB1171              0.94      0.94      1.52      0.01         0.01
  
  
  ***************
  Pumping Summary
  ***************
  
  ---------------------------------------------------------------------------------------------------------
                                                  Min       Avg       Max     Total     Power    % Time Off
                        Percent   Number of      Flow      Flow      Flow    Volume     Usage    Pump Curve
  Pump                 Utilized   Start-Ups       LPS       LPS       LPS  10^6 ltr     Kw-hr    Low   High
  ---------------------------------------------------------------------------------------------------------
  CC-R1                   63.85           8      0.00    617.26    683.00     8.071    149.64    0.0   65.9
  CC-R2                   22.24           7      0.00    587.34    683.00     2.739     48.56    0.0   75.0
  CC-S1                   69.50          10      0.00    194.91    200.00     2.902     17.28    0.0   36.5
  CC-S2                   25.02           8      0.00    187.24    200.00     1.012      6.05    0.0   45.3
  JK-R1                   55.62           8      0.00    147.46   1000.00     1.848      7.43    0.0    0.0
  JK-R2                   30.59           9      0.00    187.78   1000.00     1.331      5.58    0.0    0.0
  JK-S                    41.71           9      0.00    113.60    300.00     1.297     18.43    0.0    0.0
  XR-1                    97.22           1      0.00     95.00     95.00     1.995      8.84    0.0    0.0
  XR-2                    91.93           1      0.00     95.00     95.00     1.886      8.00    0.0    0.0
  XR-3                     0.00           0      0.00      0.00      0.00     0.000      0.00    0.0    0.0
  XR-4                     0.00           0      0.00      0.00      0.00     0.000      0.00    0.0    0.0
  

  Analysis begun on:  Mon Aug 22 16:56:36 2022
  Analysis ended on:  Mon Aug 22 16:56:41 2022
  Total elapsed time: 00:00:05