
  EPA STORM WATER MANAGEMENT MODEL - VERSION 5.1 (Build 5.3.0.dev0)
  --------------------------------------------------------------

  WARNING 04: minimum elevation drop used for Conduit WS02004404WS02004405
  WARNING 03: negative offset ignored for Link YS02001904YS02001907
  
  *********************************************************
  NOTE: The summary statistics displayed in this report are
  based on results found at every computational time step,  
  not just on results from each reporting time step.
  *********************************************************
  
  ****************
  Analysis Options
  ****************
  Flow Units ............... LPS
  Process Models:
    Rainfall/Runoff ........ YES
    RDII ................... NO
    Snowmelt ............... NO
    Groundwater ............ NO
    Flow Routing ........... YES
    Ponding Allowed ........ NO
    Water Quality .......... NO
  Infiltration Method ...... HORTON
  Flow Routing Method ...... DYNWAVE
  Surcharge Method ......... EXTRAN
  Starting Date ............ 01/01/2000 00:00:00
  Ending Date .............. 01/01/2000 06:00:00
  Antecedent Dry Days ...... 8.0
  Report Time Step ......... 00:01:00
  Wet Time Step ............ 00:01:00
  Dry Time Step ............ 00:01:00
  Routing Time Step ........ 30.00 sec
  Variable Time Step ....... YES
  Maximum Trials ........... 8
  Number of Threads ........ 4
  Head Tolerance ........... 0.001500 m
  
  
  **************************        Volume         Depth
  Runoff Quantity Continuity     hectare-m            mm
  **************************     ---------       -------
  Total Precipitation ......         3.834        63.284
  Evaporation Loss .........         0.000         0.000
  Infiltration Loss ........         0.248         4.089
  Surface Runoff ...........         3.520        58.112
  Final Storage ............         0.066         1.096
  Continuity Error (%) .....        -0.019
  
  
  **************************        Volume        Volume
  Flow Routing Continuity        hectare-m      10^6 ltr
  **************************     ---------     ---------
  Dry Weather Inflow .......         0.472         4.722
  Wet Weather Inflow .......         3.521        35.207
  Groundwater Inflow .......         0.000         0.000
  RDII Inflow ..............         0.000         0.000
  External Inflow ..........         0.078         0.784
  External Outflow .........         2.502        25.015
  Flooding Loss ............         1.835        18.346
  Evaporation Loss .........         0.000         0.000
  Exfiltration Loss ........         0.000         0.000
  Initial Stored Volume ....         0.303         3.031
  Final Stored Volume ......         0.175         1.748
  Continuity Error (%) .....        -3.122
  
  
  *************************
  Highest Continuity Errors
  *************************
  Node JK-storage (-8.12%)
  Node CC-storage (-7.83%)
  Node YS02001884 (5.21%)
  Node YS02001583 (-2.75%)
  Node HS02004842 (1.75%)
  
  
  ***************************
  Time-Step Critical Elements
  ***************************
  Link WS02006252WS02006251 (49.54%)
  Link WS02006280WS02006229 (13.89%)
  Link WS02006238WS02006235 (9.67%)
  Link WS02004404WS02004405 (5.54%)
  Link YS02001793JiankangQianchi (4.39%)
  
  
  ********************************
  Highest Flow Instability Indexes
  ********************************
  Link WS02006113WS02006111 (26)
  Link WS02004404WS02004405 (16)
  Link WS02006238WS02006235 (15)
  Link WS02006111WS02006112 (15)
  Link WS02006229WS02006228 (14)
  
  
  *************************
  Routing Time Step Summary
  *************************
  Minimum Time Step           :     0.50 sec
  Average Time Step           :     1.58 sec
  Maximum Time Step           :     4.63 sec
  Percent in Steady State     :     0.00
  Average Iterations per Step :     2.91
  Percent Not Converging      :     7.15
  
  
  ***************************
  Subcatchment Runoff Summary
  ***************************
  
  ------------------------------------------------------------------------------------------------------------------------------
                            Total      Total      Total      Total     Imperv       Perv      Total       Total     Peak  Runoff
                           Precip      Runon       Evap      Infil     Runoff     Runoff     Runoff      Runoff   Runoff   Coeff
  Subcatchment                 mm         mm         mm         mm         mm         mm         mm    10^6 ltr      LPS
  ------------------------------------------------------------------------------------------------------------------------------
  sub0                      63.28       0.00       0.00       1.00      57.60       3.44      61.03        0.05    30.01   0.964
  sub1                      63.28       0.00       0.00       1.73      55.01       5.23      60.24        0.40   219.58   0.952
  sub10                     63.28       0.00       0.00       1.21      56.88       3.85      60.73        0.67   371.14   0.960
  sub11                     63.28       0.00       0.00       1.19      56.92       3.88      60.80        0.71   404.77   0.961
  sub12                     63.28       0.00       0.00       1.93      53.87       6.30      60.16        0.53   316.22   0.951
  sub14                     63.28       0.00       0.00       1.36      56.29       4.33      60.62        0.58   325.91   0.958
  sub15                     63.28       0.00       0.00       5.48      43.29      13.51      56.80        0.98   527.47   0.898
  sub16                     63.28       0.00       0.00       5.63      41.48      15.26      56.74        0.59   344.61   0.897
  sub17                     63.28       0.00       0.00       5.49      42.09      14.76      56.85        0.49   280.78   0.898
  sub2                      63.28       0.00       0.00       7.85      38.90      15.57      54.47        0.51   242.34   0.861
  sub22                     63.28       0.00       0.00       8.32      35.27      18.89      54.16        3.42  1796.96   0.856
  sub23                     63.28       0.00       0.00       6.77      38.99      16.65      55.64        2.65  1458.59   0.879
  sub3                      63.28       0.00       0.00       8.01      38.82      14.90      53.72        1.21   547.57   0.849
  sub4                      63.28       0.00       0.00       1.96      54.68       5.00      59.67        1.24   588.47   0.943
  sub5                      63.28       0.00       0.00       1.06      57.49       3.37      60.86        0.69   377.02   0.962
  sub60                     63.28       0.00       0.00       1.83      54.45       5.77      60.22        0.79   458.49   0.952
  sub61                     63.28       0.00       0.00       2.67      51.37       8.09      59.46        1.09   637.61   0.940
  sub62                     63.28       0.00       0.00       1.22      56.87       3.84      60.72        1.66   913.36   0.959
  sub63                     63.28       0.00       0.00       5.00      43.94      13.36      57.29        1.30   738.76   0.905
  sub64                     63.28       0.00       0.00       2.52      52.51       6.98      59.48        1.43   760.11   0.940
  sub65                     63.28       0.00       0.00       2.18      53.71       6.05      59.76        1.65   853.95   0.944
  sub66                     63.28       0.00       0.00       6.24      43.72      12.11      55.84        2.60  1216.61   0.882
  sub67                     63.28       0.00       0.00       1.16      56.96       3.90      60.86        1.13   672.97   0.962
  sub68                     63.28       0.00       0.00       2.21      53.19       6.65      59.84        1.65   931.72   0.946
  sub69                     63.28       0.00       0.00       2.02      53.58       7.48      61.06        2.26  1135.95   0.965
  sub7                      63.28       0.00       0.00       1.34      56.32       4.36      60.68        0.20   118.90   0.959
  sub70                     63.28       0.00       0.00       6.77      41.45      14.75      56.20        1.62   700.45   0.888
  sub71                     63.28       0.00       0.00       1.26      56.79       3.80      60.59        1.58   821.91   0.957
  sub72                     63.28       0.00       0.00       1.13      57.28       3.31      60.59        0.83   404.74   0.957
  sub8                      63.28       0.00       0.00       1.35      56.30       4.34      60.64        0.39   220.70   0.958
  sub9                      63.28       0.00       0.00       1.36      56.29       4.34      60.63        0.29   165.33   0.958
  
  
  ******************
  Node Depth Summary
  ******************
  
  ---------------------------------------------------------------------------------
                                 Average  Maximum  Maximum  Time of Max    Reported
                                   Depth    Depth      HGL   Occurrence   Max Depth
  Node                 Type       Meters   Meters   Meters  days hr:min      Meters
  ---------------------------------------------------------------------------------
  HS02004478           JUNCTION     0.20     1.58    10.81     0  02:35        1.58
  HS02004479           JUNCTION     0.27     1.68    10.88     0  02:25        1.67
  HS02004480           JUNCTION     0.24     1.65    10.89     0  02:25        1.63
  HS02004770           JUNCTION     0.24     1.42    11.25     0  02:21        1.42
  HS02004777           JUNCTION     0.26     1.48    11.28     0  02:21        1.45
  HS02004785           JUNCTION     0.17     1.49    11.39     0  02:21        1.34
  HS02004788           JUNCTION     0.14     1.40    11.30     0  02:21        1.33
  HS02004792           JUNCTION     0.18     1.60    11.12     0  02:25        1.60
  HS02004799           JUNCTION     0.29     1.76    10.97     0  02:25        1.76
  HS02004802           JUNCTION     0.29     1.80    10.93     0  02:35        1.79
  HS02004807           JUNCTION     0.27     1.92    11.09     0  02:34        1.92
  HS02004817           JUNCTION     0.56     2.35    11.19     0  02:35        2.33
  HS02004824           JUNCTION     0.15     1.89    11.29     0  02:35        1.88
  HS02004830           JUNCTION     0.15     1.87    11.34     0  02:25        1.83
  HS02004837           JUNCTION     0.13     1.83    11.41     0  02:25        1.74
  HS02004842           JUNCTION     0.41     2.16    11.43     0  02:25        2.05
  HS02004848           JUNCTION     0.11     1.83    11.43     0  02:25        1.72
  HS02004852           JUNCTION     0.11     1.86    11.37     0  02:25        1.77
  HS02004856           JUNCTION     0.17     1.87    11.30     0  02:25        1.82
  HS02004862           JUNCTION     0.12     1.82    11.20     0  02:34        1.80
  HS02004870           JUNCTION     0.12     1.80    11.08     0  02:34        1.79
  HS02004876           JUNCTION     0.16     1.89    10.92     0  02:35        1.88
  HS02004881           JUNCTION     0.10     1.66    10.69     0  02:35        1.65
  HS02004901           JUNCTION     0.25     1.42    11.24     0  02:21        1.42
  WS02001211           JUNCTION     0.61     0.81     5.65     0  02:38        0.81
  WS02001212           JUNCTION     0.36     0.57     5.64     0  02:39        0.57
  WS02001213           JUNCTION     0.58     0.87     5.63     0  02:37        0.87
  WS02003059           JUNCTION     0.64     0.94     5.62     0  02:39        0.94
  WS02003060           JUNCTION     0.37     0.69     5.62     0  02:40        0.69
  WS02003066           JUNCTION     0.23     0.45     6.01     0  02:35        0.45
  WS02003067           JUNCTION     0.53     0.89     6.21     0  02:35        0.89
  WS02003069           JUNCTION     0.42     0.78     5.36     0  02:41        0.78
  WS02003072           JUNCTION     0.48     0.81     5.18     0  02:41        0.81
  WS02003073           JUNCTION     0.29     0.51     4.58     0  02:41        0.51
  WS02004138           JUNCTION     0.13     0.14     7.39     0  00:32        0.14
  WS02004139           JUNCTION     0.55     0.74     5.65     0  02:38        0.74
  WS02004401           JUNCTION     0.74     1.85     7.85     0  02:35        1.84
  WS02004402           JUNCTION     0.76     1.79     7.75     0  02:35        1.79
  WS02004403           JUNCTION     0.76     1.72     7.65     0  02:35        1.71
  WS02004404           JUNCTION     0.82     1.73     7.58     0  02:35        1.72
  WS02004405           JUNCTION     0.81     1.68     7.53     0  02:35        1.67
  WS02004406           JUNCTION     0.80     1.56     7.39     0  02:35        1.55
  WS02004407           JUNCTION     0.26     0.92     7.23     0  02:35        0.92
  WS02004409           JUNCTION     0.52     1.38     7.15     0  02:35        1.37
  WS02004410           JUNCTION     0.53     1.29     7.01     0  02:35        1.29
  WS02004411           JUNCTION     0.53     1.20     6.88     0  02:35        1.20
  WS02004412           JUNCTION     0.53     1.10     6.74     0  02:34        1.10
  WS02004413           JUNCTION     0.66     1.14     6.61     0  02:34        1.14
  WS02006109           JUNCTION     0.95     2.64     9.26     0  02:22        2.64
  WS02006110           JUNCTION     0.89     2.39     8.97     0  02:35        2.38
  WS02006111           JUNCTION     0.41     1.73     8.43     0  02:34        1.72
  WS02006112           JUNCTION     0.95     2.36     8.24     0  02:34        2.34
  WS02006113           JUNCTION     0.48     1.81     8.71     0  02:35        1.81
  WS02006115           JUNCTION     0.67     1.94     8.08     0  02:35        1.94
  WS02006116           JUNCTION     0.73     1.94     7.98     0  02:34        1.92
  WS02006228           JUNCTION     1.00     3.03     9.68     0  02:34        3.02
  WS02006229           JUNCTION     1.01     3.22     9.92     0  02:35        3.21
  WS02006230           JUNCTION     0.95     2.65     9.39     0  02:16        2.65
  WS02006231           JUNCTION     0.71     2.19     9.31     0  02:22        2.19
  WS02006232           JUNCTION     0.81     2.18     9.22     0  02:16        2.18
  WS02006234           JUNCTION     0.70     1.96     9.12     0  02:13        1.96
  WS02006235           JUNCTION     0.72     1.93     9.10     0  02:19        1.93
  WS02006238           JUNCTION     0.75     1.94     9.08     0  02:53        1.93
  WS02006239           JUNCTION     0.69     1.79     9.00     0  02:54        1.78
  WS02006240           JUNCTION     0.64     1.64     8.94     0  01:43        1.62
  WS02006242           JUNCTION     0.68     1.55     8.82     0  01:43        1.55
  WS02006243           JUNCTION     0.57     1.48     8.90     0  01:43        1.36
  WS02006245           JUNCTION     0.56     1.56     9.04     0  01:43        1.26
  WS02006247           JUNCTION     0.58     1.26     8.76     0  01:43        1.22
  WS02006248           JUNCTION     0.52     1.10     8.69     0  01:43        1.10
  WS02006249           JUNCTION     0.55     1.09     8.69     0  01:43        1.09
  WS02006251           JUNCTION     0.63     2.12     9.79     0  02:25        2.11
  WS02006252           JUNCTION     0.45     1.50     9.74     0  01:40        1.50
  WS02006253           JUNCTION     0.70     2.95    10.59     0  02:35        2.94
  WS02006256           JUNCTION     1.06     2.35     9.28     0  00:06        2.35
  WS02006280           JUNCTION     0.27     1.74    10.01     0  02:33        1.74
  WS02006284           JUNCTION     0.52     1.94    10.34     0  02:34        1.94
  WS02006287           JUNCTION     0.26     1.74    10.69     0  02:34        1.73
  WSF200               JUNCTION     0.22     0.52     5.75     0  02:35        0.52
  YS02001580           JUNCTION     0.07     1.05     9.59     0  02:19        0.77
  YS02001583           JUNCTION     0.10     1.13     9.63     0  02:19        0.81
  YS02001586           JUNCTION     0.17     1.13     9.30     0  02:19        1.13
  YS02001590           JUNCTION     0.26     1.38     9.24     0  02:19        1.37
  YS02001593           JUNCTION     0.19     1.31     9.17     0  02:19        1.28
  YS02001596           JUNCTION     0.27     1.67     9.09     0  02:19        1.65
  YS02001600           JUNCTION     0.33     1.87     9.00     0  02:19        1.86
  YS02001601           JUNCTION     0.52     2.06     8.90     0  02:18        2.06
  YS02001602           JUNCTION     0.43     1.87     8.77     0  02:24        1.87
  YS02001605           JUNCTION     0.40     1.77     8.68     0  02:35        1.77
  YS02001607           JUNCTION     0.39     1.65     8.49     0  02:46        1.64
  YS02001610           JUNCTION     0.43     1.68     8.48     0  02:26        1.68
  YS02001613           JUNCTION     0.39     1.65     8.49     0  02:30        1.65
  YS02001616           JUNCTION     0.33     1.59     8.51     0  02:32        1.58
  YS02001619           JUNCTION     0.30     1.59     8.51     0  02:34        1.57
  YS02001622           JUNCTION     0.29     1.56     8.46     0  02:34        1.56
  YS02001625           JUNCTION     0.52     1.78     8.38     0  02:26        1.78
  YS02001629           JUNCTION     0.40     1.85     8.40     0  02:28        1.85
  YS02001633           JUNCTION     0.47     2.01     8.47     0  02:30        1.97
  YS02001641           JUNCTION     0.45     1.95     8.38     0  02:31        1.94
  YS02001644           JUNCTION     0.44     1.92     8.35     0  02:31        1.92
  YS02001647           JUNCTION     0.24     1.70     8.31     0  02:35        1.70
  YS02001649           JUNCTION     0.27     1.88     8.27     0  02:35        1.86
  YS02001652           JUNCTION     0.17     1.71     8.30     0  02:35        1.70
  YS02001655           JUNCTION     0.12     1.48     8.33     0  02:35        1.46
  YS02001658           JUNCTION     0.09     1.22     8.36     0  02:35        1.21
  YS02001661           JUNCTION     0.13     0.97     8.38     0  02:35        0.96
  YS02001664           JUNCTION     0.05     0.33     8.26     0  02:35        0.33
  YS02001745           JUNCTION     0.05     0.69     8.20     0  02:32        0.65
  YS02001748           JUNCTION     0.08     1.22     8.30     0  02:32        1.09
  YS02001751           JUNCTION     0.10     1.33     8.21     0  02:32        1.27
  YS02001754           JUNCTION     0.14     1.57     8.18     0  02:32        1.54
  YS02001757           JUNCTION     0.29     1.88     8.14     0  02:35        1.87
  YS02001759           JUNCTION     0.23     1.88     8.24     0  02:35        1.88
  YS02001762           JUNCTION     0.22     1.87     8.27     0  02:34        1.86
  YS02001765           JUNCTION     0.20     1.84     8.29     0  02:34        1.84
  YS02001767           JUNCTION     0.20     1.85     8.34     0  02:31        1.83
  YS02001770           JUNCTION     0.22     1.92     8.42     0  02:31        1.89
  YS02001774           JUNCTION     0.28     1.99     8.41     0  02:31        1.95
  YS02001779           JUNCTION     0.12     1.68     8.37     0  02:31        1.68
  YS02001783           JUNCTION     0.24     1.83     7.97     0  02:28        1.75
  YS02001784           JUNCTION     0.26     1.82     7.89     0  02:28        1.69
  YS02001786           JUNCTION     0.23     1.80     7.83     0  02:28        1.48
  YS02001788           JUNCTION     0.19     1.84     7.82     0  02:28        1.29
  YS02001790           JUNCTION     0.24     1.75     7.40     0  02:28        1.39
  YS02001791           JUNCTION     0.21     1.50     6.97     0  02:28        1.28
  YS02001793           JUNCTION     0.26     1.83     6.66     0  02:28        1.80
  YS02001882           JUNCTION     0.27     1.66     8.38     0  02:26        1.63
  YS02001884           JUNCTION     0.36     1.75     8.37     0  02:26        1.73
  YS02001887           JUNCTION     0.43     1.81     8.35     0  02:26        1.81
  YS02001890           JUNCTION     0.46     1.81     8.32     0  02:26        1.81
  YS02001895           JUNCTION     0.25     1.57     8.32     0  02:26        1.56
  YS02001898           JUNCTION     0.25     1.57     8.30     0  02:26        1.56
  YS02001901           JUNCTION     0.35     1.68     8.29     0  02:30        1.67
  YS02001904           JUNCTION     0.33     1.64     8.27     0  02:30        1.63
  YS02001907           JUNCTION     0.63     1.96     8.25     0  02:26        1.96
  YS02001910           JUNCTION     0.44     1.95     8.46     0  02:27        1.86
  YS02001915           JUNCTION     0.27     1.89     8.61     0  02:27        1.73
  YS02001918           JUNCTION     0.15     1.77     8.84     0  02:27        1.53
  YS02001920           JUNCTION     0.22     1.92     8.93     0  02:27        1.66
  YS02001923           JUNCTION     0.11     1.73     8.99     0  02:27        1.45
  YS02001926           JUNCTION     0.15     1.58     9.02     0  02:27        1.21
  YS02001929           JUNCTION     0.08     1.63     9.32     0  02:27        0.81
  YS02006553           JUNCTION     0.63     2.05     8.33     0  02:29        2.04
  YS02006556           JUNCTION     0.61     2.12     8.43     0  02:29        2.12
  YS02006558           JUNCTION     0.65     2.19     8.46     0  02:29        2.19
  YS02006561           JUNCTION     0.15     1.35     8.01     0  02:28        1.34
  YS02163301           JUNCTION     0.42     1.92     8.43     0  02:30        1.90
  YS02163601           JUNCTION     0.50     2.02     8.42     0  02:31        2.00
  YS02164001           JUNCTION     0.44     1.94     8.40     0  02:31        1.93
  YSB1154              JUNCTION     0.40     1.90    10.96     0  02:34        1.89
  YSB1171              JUNCTION     0.54     1.95    10.85     0  02:25        1.95
  YSB1174              JUNCTION     0.35     1.79    10.90     0  02:30        1.79
  YSB6556              JUNCTION     0.30     1.73    10.90     0  02:34        1.73
  CC-1                 OUTFALL      0.00     0.00     0.00     0  00:00        0.00
  CC-2                 OUTFALL      0.00     0.00     0.00     0  00:00        0.00
  JK-1                 OUTFALL      0.00     0.00     0.00     0  00:00        0.00
  JK-2                 OUTFALL      0.00     0.00     0.00     0  00:00        0.00
  WSC                  OUTFALL      0.29     0.51     1.18     0  02:42        0.51
  CC-storage           STORAGE      0.31     1.39     6.89     0  03:02        1.39
  JK-storage           STORAGE      0.81     5.80     6.60     0  02:29        5.80
  XR-storage           STORAGE      7.69     8.66     6.66     0  06:00        8.66
  
  
  *******************
  Node Inflow Summary
  *******************
  
  -------------------------------------------------------------------------------------------------
                                  Maximum  Maximum                  Lateral       Total        Flow
                                  Lateral    Total  Time of Max      Inflow      Inflow     Balance
                                   Inflow   Inflow   Occurrence      Volume      Volume       Error
  Node                 Type           LPS      LPS  days hr:min    10^6 ltr    10^6 ltr     Percent
  -------------------------------------------------------------------------------------------------
  HS02004478           JUNCTION      0.00  2303.52     0  02:34           0         8.6      -0.011
  HS02004479           JUNCTION      0.00   386.75     0  02:26           0       0.866       0.074
  HS02004480           JUNCTION      0.00  2025.37     0  02:25           0         6.4       0.035
  HS02004770           JUNCTION   1458.59  1458.59     0  02:35        2.65        2.88       0.101
  HS02004777           JUNCTION      0.03   686.78     0  02:21    0.000648        1.88       0.276
  HS02004785           JUNCTION      0.15   706.15     0  02:21     0.00324        1.88       0.030
  HS02004788           JUNCTION    529.14   846.88     0  02:22        1.01        2.89       0.014
  HS02004792           JUNCTION   1797.24  2591.69     0  02:35        3.43        6.32       0.005
  HS02004799           JUNCTION    325.91  1711.37     0  02:23       0.577        5.73       0.051
  HS02004802           JUNCTION      0.00  1232.98     0  02:36           0        2.34       0.172
  HS02004807           JUNCTION    404.77  1299.03     0  02:35       0.707        2.39       0.175
  HS02004817           JUNCTION      0.60   896.71     0  02:35       0.013        1.74       0.989
  HS02004824           JUNCTION    588.52   896.23     0  02:35        1.25        1.91       0.020
  HS02004830           JUNCTION      0.15   552.93     0  02:22     0.00324       0.852       0.135
  HS02004837           JUNCTION    377.49   729.06     0  02:22       0.807         1.2       0.054
  HS02004842           JUNCTION      0.00   703.62     0  02:24           0       0.742       1.778
  HS02004848           JUNCTION    547.57   936.53     0  02:24        1.21        1.79       0.011
  HS02004852           JUNCTION      0.00   921.84     0  02:24           0        1.64      -0.006
  HS02004856           JUNCTION    165.33   974.44     0  02:24       0.292        1.93       0.088
  HS02004862           JUNCTION    242.54  1062.72     0  02:24       0.512        2.44       0.024
  HS02004870           JUNCTION    220.70  1205.53     0  02:35       0.388        2.82       0.008
  HS02004876           JUNCTION    219.58  1424.95     0  02:35       0.401        3.23       0.024
  HS02004881           JUNCTION    118.90  1543.42     0  02:35       0.205        3.43       0.011
  HS02004901           JUNCTION    344.61   610.04     0  02:35       0.594       0.947       0.178
  WS02001211           JUNCTION      7.35   205.46     0  03:09       0.159        4.02       0.828
  WS02001212           JUNCTION      0.00   214.39     0  03:08           0        3.98       0.393
  WS02001213           JUNCTION      0.00   220.85     0  03:08           0        3.97       0.462
  WS02003059           JUNCTION      0.00   227.12     0  03:08           0        3.96       0.828
  WS02003060           JUNCTION     16.53  1504.63     0  02:40       0.357        13.6       0.120
  WS02003066           JUNCTION      0.00  1298.57     0  02:35           0        9.31       0.024
  WS02003067           JUNCTION      0.00  1298.55     0  02:35           0        9.31       0.056
  WS02003069           JUNCTION      0.32  1504.64     0  02:40     0.00691        13.6       0.127
  WS02003072           JUNCTION      0.00  1504.52     0  02:41           0        13.6       0.170
  WS02003073           JUNCTION      1.82  1506.26     0  02:41      0.0393        13.6       0.179
  WS02004138           JUNCTION      0.00   190.00     0  00:29           0        3.88       0.072
  WS02004139           JUNCTION      0.32   190.32     0  00:32     0.00693        3.89       0.686
  WS02004401           JUNCTION      0.00  1299.51     0  02:34           0        9.45       0.131
  WS02004402           JUNCTION      0.00  1298.86     0  02:35           0        9.43       0.131
  WS02004403           JUNCTION      0.00  1299.04     0  02:35           0        9.42       0.126
  WS02004404           JUNCTION      0.16  1299.52     0  02:35      0.0035        9.41       0.103
  WS02004405           JUNCTION      0.04  1299.82     0  02:35    0.000823         9.4       0.151
  WS02004406           JUNCTION      0.00  1300.30     0  02:35           0        9.39       0.249
  WS02004407           JUNCTION      0.00  1299.72     0  02:35           0        9.37       0.027
  WS02004409           JUNCTION      0.00  1298.40     0  02:35           0        9.36       0.063
  WS02004410           JUNCTION      0.00  1298.52     0  02:35           0        9.36       0.081
  WS02004411           JUNCTION      0.00  1298.31     0  02:35           0        9.35       0.092
  WS02004412           JUNCTION      0.00  1298.38     0  02:35           0        9.34       0.111
  WS02004413           JUNCTION      0.00  1298.50     0  02:35           0        9.33       0.193
  WS02006109           JUNCTION      1.23  1288.92     0  02:34      0.0266        9.28       0.088
  WS02006110           JUNCTION      0.00  1125.75     0  02:48           0        9.01       0.119
  WS02006111           JUNCTION      0.00  1126.34     0  02:49           0        8.99       0.011
  WS02006112           JUNCTION    280.78  1299.70     0  02:35       0.488        9.48       0.209
  WS02006113           JUNCTION      0.00  1125.90     0  02:48           0           9       0.047
  WS02006115           JUNCTION      0.00  1299.76     0  02:35           0        9.46       0.098
  WS02006116           JUNCTION      0.00  1299.52     0  02:35           0        9.45       0.045
  WS02006228           JUNCTION      0.00  1289.86     0  02:34           0        9.25       0.049
  WS02006229           JUNCTION      0.00  2305.10     0  02:34           0        11.6       0.062
  WS02006230           JUNCTION     10.28  1025.72     0  02:34       0.222        5.34       0.137
  WS02006231           JUNCTION      0.00   453.33     0  02:26           0        4.19       0.042
  WS02006232           JUNCTION      0.00   453.50     0  02:26           0         4.2       0.202
  WS02006234           JUNCTION      0.00   453.21     0  02:51           0        4.19      -0.013
  WS02006235           JUNCTION      0.00   439.64     0  04:00           0        4.24       0.128
  WS02006238           JUNCTION      0.00   416.42     0  02:38           0         3.6      -0.196
  WS02006239           JUNCTION      0.00   415.45     0  02:38           0        3.59      -0.184
  WS02006240           JUNCTION      0.00   415.49     0  02:38           0        3.59       0.028
  WS02006242           JUNCTION      0.00   415.15     0  02:55           0         3.6       0.136
  WS02006243           JUNCTION      0.00   438.49     0  01:43           0        3.18      -0.183
  WS02006245           JUNCTION      0.00   441.44     0  01:43           0        3.19       0.411
  WS02006247           JUNCTION      0.00   462.22     0  01:42           0        3.19       0.016
  WS02006248           JUNCTION      0.00   487.38     0  01:42           0        3.45      -0.040
  WS02006249           JUNCTION      0.00  1351.28     0  02:35           0         6.8       0.172
  WS02006251           JUNCTION      0.08  1573.56     0  02:35     0.00166        6.94      -0.004
  WS02006252           JUNCTION      0.00   623.84     0  02:35           0        3.99      -0.033
  WS02006253           JUNCTION     30.01  1574.39     0  02:35      0.0494        3.52       0.044
  WS02006256           JUNCTION      0.00   300.00     0  01:57           0        2.01       0.039
  WS02006280           JUNCTION      0.00  2305.01     0  02:34           0        8.58       0.003
  WS02006284           JUNCTION      0.10  2303.46     0  02:34     0.00207        8.58       0.007
  WS02006287           JUNCTION      0.00  2304.77     0  02:34           0        8.58       0.010
  WSF200               JUNCTION      0.00  1298.68     0  02:35           0        9.31       0.015
  YS02001580           JUNCTION      0.00    72.09     0  02:19           0     0.00412      -1.458
  YS02001583           JUNCTION      0.00   108.25     0  02:18           0      0.0158      -2.676
  YS02001586           JUNCTION    700.45   700.48     0  02:40        1.62        1.64       0.060
  YS02001590           JUNCTION      0.00   317.99     0  02:28           0        1.31      -0.032
  YS02001593           JUNCTION      0.00   318.09     0  02:38           0        1.31       0.013
  YS02001596           JUNCTION      0.00   318.08     0  02:28           0        1.31       0.006
  YS02001600           JUNCTION      0.00   318.19     0  02:28           0        1.31       0.031
  YS02001601           JUNCTION   1135.95  1453.39     0  02:35        2.26        3.57       0.036
  YS02001602           JUNCTION      0.00   490.03     0  02:18           0         2.3       0.040
  YS02001605           JUNCTION      0.00   489.48     0  02:18           0         2.2       0.054
  YS02001607           JUNCTION      0.00   488.99     0  02:57           0         2.2       0.117
  YS02001610           JUNCTION      0.00   659.25     0  02:39           0        2.38       0.123
  YS02001613           JUNCTION      0.00   491.02     0  02:57           0        1.97       0.112
  YS02001616           JUNCTION      0.00   494.12     0  02:18           0        1.97       0.044
  YS02001619           JUNCTION   1216.61  1216.61     0  02:40         2.6        4.39       0.007
  YS02001622           JUNCTION      0.00   936.80     0  02:25           0        4.21       0.014
  YS02001625           JUNCTION      0.00  1232.03     0  02:39           0        4.37       0.241
  YS02001629           JUNCTION      0.00   935.92     0  02:25           0        3.59       0.032
  YS02001633           JUNCTION    854.15  1367.47     0  02:26        1.65        5.08       0.086
  YS02001641           JUNCTION      0.00  1365.47     0  02:26           0        4.91       0.067
  YS02001644           JUNCTION    760.15  1762.83     0  02:26        1.43        6.33       0.062
  YS02001647           JUNCTION      0.00  1761.39     0  02:26           0        6.18       0.011
  YS02001649           JUNCTION      0.00  2038.69     0  02:26           0        7.48       0.012
  YS02001652           JUNCTION      0.00   746.77     0  02:35           0         1.3      -0.064
  YS02001655           JUNCTION      0.15   746.52     0  02:35     0.00332         1.3       0.041
  YS02001658           JUNCTION      0.00   745.80     0  02:35           0         1.3      -0.019
  YS02001661           JUNCTION      0.00   738.68     0  02:35           0         1.3       0.019
  YS02001664           JUNCTION    738.76   738.76     0  02:35         1.3         1.3      -0.004
  YS02001745           JUNCTION    458.49   458.49     0  02:35       0.792       0.792       0.154
  YS02001748           JUNCTION      0.04   468.61     0  02:35    0.000972       0.792      -0.212
  YS02001751           JUNCTION      0.01   475.66     0  02:29    0.000238       0.795       0.032
  YS02001754           JUNCTION      0.26   468.84     0  02:35     0.00562         0.8      -0.155
  YS02001757           JUNCTION      0.00  3502.64     0  02:35           0          11       0.043
  YS02001759           JUNCTION    637.65  1412.36     0  02:34        1.09        2.74      -0.001
  YS02001762           JUNCTION      0.00   815.04     0  02:40           0        1.64       0.001
  YS02001765           JUNCTION      0.00   814.86     0  02:40           0        1.64       0.009
  YS02001767           JUNCTION      0.54   814.15     0  02:40      0.0116        1.64      -0.002
  YS02001770           JUNCTION    913.51   913.51     0  02:35        1.67        1.71      -0.007
  YS02001774           JUNCTION      0.00   152.74     0  02:27           0      0.0937       1.159
  YS02001779           JUNCTION      0.01   146.39     0  02:27    0.000108      0.0511      -0.757
  YS02001783           JUNCTION      0.00  1151.30     0  02:28           0        3.83       0.006
  YS02001784           JUNCTION      1.06  1152.55     0  02:28      0.0229        3.85       0.021
  YS02001786           JUNCTION      0.06  1152.81     0  02:28     0.00122        3.85       0.022
  YS02001788           JUNCTION      0.07  1156.39     0  02:28     0.00153        3.85       0.001
  YS02001790           JUNCTION      0.15  1163.35     0  02:27     0.00335        3.85       0.008
  YS02001791           JUNCTION      0.00  1259.56     0  02:27           0        3.85      -0.020
  YS02001793           JUNCTION      0.00  1194.29     0  02:26           0        3.85      -0.027
  YS02001882           JUNCTION      0.00    28.93     0  02:23           0      0.0127       5.029
  YS02001884           JUNCTION      0.00    38.83     0  02:22           0      0.0485       5.492
  YS02001887           JUNCTION    673.42   673.42     0  02:35        1.14        1.18       0.395
  YS02001890           JUNCTION      0.00   674.45     0  02:35           0        1.13       0.467
  YS02001895           JUNCTION      0.00   517.72     0  02:37           0        1.07       0.141
  YS02001898           JUNCTION      0.00   518.16     0  02:37           0        1.07       0.036
  YS02001901           JUNCTION      0.00   517.79     0  02:37           0        1.08       0.313
  YS02001904           JUNCTION      0.00   517.78     0  02:37           0        1.08       0.269
  YS02001907           JUNCTION      0.00  1753.38     0  02:35           0        3.55       0.508
  YS02001910           JUNCTION      0.00  1238.93     0  02:35           0        2.48       0.292
  YS02001915           JUNCTION    821.93  1238.01     0  02:35        1.59         2.5       0.071
  YS02001918           JUNCTION      0.00   450.68     0  02:27           0       0.927       0.023
  YS02001920           JUNCTION      2.87   449.34     0  02:27       0.062       0.919       0.102
  YS02001923           JUNCTION      0.04   414.18     0  02:35    0.000814       0.848      -0.058
  YS02001926           JUNCTION      0.05   413.93     0  02:35     0.00113       0.838       0.067
  YS02001929           JUNCTION    404.74   404.74     0  02:35       0.833       0.833      -0.040
  YS02006553           JUNCTION      0.00   685.44     0  02:49           0        2.21       0.549
  YS02006556           JUNCTION      0.00   685.21     0  02:50           0        2.21       0.364
  YS02006558           JUNCTION    932.60  1153.07     0  02:28        1.67        3.86       0.099
  YS02006561           JUNCTION      0.00  1151.40     0  02:28           0        3.83      -0.006
  YS02163301           JUNCTION      0.00   935.93     0  02:25           0        3.59       0.060
  YS02163601           JUNCTION      0.11  1367.65     0  02:26     0.00238        4.91       0.118
  YS02164001           JUNCTION      0.00  1367.44     0  02:26           0        4.91       0.056
  YSB1154              JUNCTION    377.02   377.02     0  02:35        0.69        0.69       0.224
  YSB1171              JUNCTION      0.00   914.73     0  02:35           0        1.33       0.491
  YSB1174              JUNCTION    316.22   316.22     0  02:35       0.526       0.526       0.249
  YSB6556              JUNCTION      0.00   377.39     0  02:35           0       0.691       0.178
  CC-1                 OUTFALL       0.00   683.00     0  00:00           0        8.04       0.000
  CC-2                 OUTFALL       0.00   683.00     0  00:00           0        2.35       0.000
  JK-1                 OUTFALL       0.00  1000.00     0  00:00           0       0.784       0.000
  JK-2                 OUTFALL       0.00  1000.00     0  00:00           0       0.297       0.000
  WSC                  OUTFALL       0.00  1506.16     0  02:42           0        13.5       0.000
  CC-storage           STORAGE       0.00  3502.41     0  02:35           0        13.2      -7.263
  JK-storage           STORAGE       0.00  1342.62     0  03:20           0        4.01      -7.511
  XR-storage           STORAGE     200.00   200.00     0  00:00        4.32        4.92       0.001
  
  
  **********************
  Node Surcharge Summary
  **********************
  
  Surcharging occurs when water rises above the top of the highest conduit.
  ---------------------------------------------------------------------
                                               Max. Height   Min. Depth
                                   Hours       Above Crown    Below Rim
  Node                 Type      Surcharged         Meters       Meters
  ---------------------------------------------------------------------
  HS02004478           JUNCTION        0.49          0.664        0.276
  HS02004479           JUNCTION        0.61          0.878        0.172
  HS02004480           JUNCTION        0.65          0.939        0.161
  HS02004770           JUNCTION        0.55          0.720        0.000
  HS02004777           JUNCTION        0.56          0.780        0.000
  HS02004785           JUNCTION        0.51          0.790        0.000
  HS02004788           JUNCTION        0.50          0.703        0.017
  HS02004792           JUNCTION        0.62          0.900        0.000
  HS02004799           JUNCTION        0.76          1.060        0.000
  HS02004802           JUNCTION        0.67          1.089        0.121
  HS02004807           JUNCTION        0.65          1.220        0.000
  HS02004817           JUNCTION        1.19          1.646        0.094
  HS02004824           JUNCTION        0.51          1.191        0.119
  HS02004830           JUNCTION        0.48          1.172        0.158
  HS02004837           JUNCTION        0.45          1.135        0.205
  HS02004842           JUNCTION        0.57          1.462        0.058
  HS02004848           JUNCTION        0.41          1.132        0.238
  HS02004852           JUNCTION        0.43          1.162        0.258
  HS02004856           JUNCTION        0.43          1.100        0.200
  HS02004862           JUNCTION        0.45          1.116        0.184
  HS02004870           JUNCTION        0.46          1.097        0.303
  HS02004876           JUNCTION        0.51          1.191        0.369
  HS02004881           JUNCTION        0.49          0.957        0.493
  HS02004901           JUNCTION        0.56          0.720        0.000
  WS02004401           JUNCTION        1.71          0.851        0.809
  WS02004402           JUNCTION        1.74          0.789        0.951
  WS02004403           JUNCTION        1.75          0.720        1.310
  WS02004404           JUNCTION        1.94          0.729        2.051
  WS02004405           JUNCTION        1.89          0.677        2.123
  WS02004406           JUNCTION        1.86          0.563        1.887
  WS02004409           JUNCTION        1.06          0.383        1.977
  WS02004410           JUNCTION        0.98          0.293        2.247
  WS02004411           JUNCTION        0.90          0.202        2.328
  WS02004412           JUNCTION        0.80          0.104        2.206
  WS02004413           JUNCTION        1.41          0.144        2.056
  WS02006109           JUNCTION        2.50          1.820        0.000
  WS02006110           JUNCTION        2.28          1.479        0.371
  WS02006111           JUNCTION        1.32          0.916        0.954
  WS02006112           JUNCTION        2.32          1.358        0.322
  WS02006113           JUNCTION        1.36          1.013        0.917
  WS02006115           JUNCTION        1.62          0.932        1.318
  WS02006116           JUNCTION        1.64          0.876        1.414
  WS02006228           JUNCTION        2.49          2.200        0.000
  WS02006229           JUNCTION        0.94          1.044        0.026
  WS02006230           JUNCTION        2.06          1.570        0.000
  WS02006231           JUNCTION        2.28          1.479        0.051
  WS02006232           JUNCTION        2.36          1.480        0.000
  WS02006234           JUNCTION        2.31          1.240        0.000
  WS02006235           JUNCTION        2.32          1.222        0.068
  WS02006238           JUNCTION        2.32          1.215        0.215
  WS02006239           JUNCTION        2.31          1.046        0.244
  WS02006240           JUNCTION        2.31          0.933        0.457
  WS02006242           JUNCTION        2.35          0.820        0.000
  WS02006243           JUNCTION        2.30          0.770        0.000
  WS02006245           JUNCTION        2.30          0.850        0.000
  WS02006247           JUNCTION        2.30          0.548        0.212
  WS02006248           JUNCTION        2.29          0.380        0.000
  WS02006249           JUNCTION        2.29          0.390        0.000
  WS02006251           JUNCTION        2.27          1.093        0.087
  WS02006252           JUNCTION        2.64          1.100        0.000
  WS02006253           JUNCTION        2.27          1.909        0.571
  WS02006256           JUNCTION        5.89          2.050        0.000
  WS02006280           JUNCTION        0.78          0.691        0.089
  WS02006284           JUNCTION        0.69          0.664        0.136
  WS02006287           JUNCTION        0.58          0.738        0.152
  YS02001580           JUNCTION        0.60          0.450        0.000
  YS02001583           JUNCTION        0.60          0.495        0.005
  YS02001586           JUNCTION        0.70          0.510        0.000
  YS02001590           JUNCTION        0.77          0.732        0.018
  YS02001593           JUNCTION        0.77          0.692        0.148
  YS02001596           JUNCTION        0.89          0.943        0.127
  YS02001600           JUNCTION        1.04          1.190        0.000
  YS02001601           JUNCTION        1.41          1.440        0.000
  YS02001602           JUNCTION        1.28          1.270        0.000
  YS02001605           JUNCTION        1.22          1.175        0.005
  YS02001607           JUNCTION        0.73          0.645        0.035
  YS02001610           JUNCTION        0.75          0.680        0.000
  YS02001613           JUNCTION        0.72          0.654        0.046
  YS02001616           JUNCTION        0.68          0.594        0.016
  YS02001619           JUNCTION        0.67          0.585        0.025
  YS02001622           JUNCTION        0.66          0.560        0.060
  YS02001625           JUNCTION        0.84          0.780        0.000
  YS02001629           JUNCTION        0.58          0.470        0.000
  YS02001633           JUNCTION        0.85          0.993        0.067
  YS02001641           JUNCTION        0.76          0.947        0.153
  YS02001644           JUNCTION        0.71          0.920        0.000
  YS02001647           JUNCTION        0.46          0.702        0.198
  YS02001649           JUNCTION        0.53          0.880        0.170
  YS02001652           JUNCTION        0.38          0.677        0.453
  YS02001655           JUNCTION        0.27          0.477        0.723
  YS02001658           JUNCTION        0.17          0.215        1.085
  YS02001748           JUNCTION        0.03          0.138        1.052
  YS02001751           JUNCTION        0.19          0.334        0.866
  YS02001754           JUNCTION        0.28          0.517        0.633
  YS02001757           JUNCTION        0.54          0.876        0.334
  YS02001759           JUNCTION        0.47          0.877        0.333
  YS02001762           JUNCTION        0.44          0.871        0.279
  YS02001765           JUNCTION        0.41          0.844        0.256
  YS02001767           JUNCTION        0.39          0.853        0.177
  YS02001770           JUNCTION        0.37          0.895        0.025
  YS02001774           JUNCTION        0.43          0.986        0.064
  YS02001779           JUNCTION        0.29          0.680        0.000
  YS02001783           JUNCTION        0.66          1.028        0.572
  YS02001784           JUNCTION        0.65          1.021        0.469
  YS02001786           JUNCTION        0.60          0.999        0.431
  YS02001788           JUNCTION        0.54          1.041        0.439
  YS02001790           JUNCTION        0.78          0.954        0.203
  YS02001791           JUNCTION        0.83          0.699        1.221
  YS02001793           JUNCTION        0.88          0.827        1.773
  YS02001882           JUNCTION        0.53          0.661        0.169
  YS02001884           JUNCTION        0.54          0.691        0.179
  YS02001887           JUNCTION        0.57          0.763        0.187
  YS02001890           JUNCTION        0.59          0.760        0.000
  YS02001895           JUNCTION        0.51          0.568        0.182
  YS02001898           JUNCTION        0.50          0.536        0.204
  YS02001901           JUNCTION        0.56          0.676        0.194
  YS02001904           JUNCTION        0.55          0.638        0.212
  YS02001907           JUNCTION        0.84          0.950        0.000
  YS02001910           JUNCTION        0.61          0.950        0.150
  YS02001915           JUNCTION        0.52          0.891        0.109
  YS02001918           JUNCTION        0.43          0.774        0.036
  YS02001920           JUNCTION        0.44          0.921        0.219
  YS02001923           JUNCTION        0.03          0.519        0.301
  YS02001926           JUNCTION        0.13          0.577        0.323
  YS02001929           JUNCTION        0.01          0.626        0.154
  YS02006553           JUNCTION        0.86          1.046        0.144
  YS02006556           JUNCTION        0.72          1.078        0.272
  YS02006558           JUNCTION        0.70          1.093        0.307
  YS02006561           JUNCTION        0.44          0.553        0.597
  YS02163301           JUNCTION        0.83          0.917        0.113
  YS02163601           JUNCTION        0.88          1.023        0.057
  YS02164001           JUNCTION        0.77          0.944        0.156
  YSB1154              JUNCTION        0.88          1.200        0.200
  YSB1171              JUNCTION        0.88          1.100        0.000
  YSB1174              JUNCTION        0.80          1.092        0.158
  YSB6556              JUNCTION        0.73          1.033        0.067
  
  
  *********************
  Node Flooding Summary
  *********************
  
  Flooding refers to all water that overflows a node, whether it ponds or not.
  --------------------------------------------------------------------------
                                                             Total   Maximum
                                 Maximum   Time of Max       Flood    Ponded
                        Hours       Rate    Occurrence      Volume     Depth
  Node                 Flooded       LPS   days hr:min    10^6 ltr    Meters
  --------------------------------------------------------------------------
  HS02004770              0.40    926.85      0  02:35       0.648     0.000
  HS02004777              0.01     33.12      0  02:21       0.000     0.000
  HS02004785              0.01     92.61      0  02:21       0.000     0.000
  HS02004792              0.37   1448.82      0  02:35       1.165     0.000
  HS02004799              0.19    175.61      0  02:34       0.082     0.000
  HS02004807              0.07     69.74      0  02:35       0.007     0.000
  HS02004901              0.46    609.78      0  02:35       0.715     0.000
  WS02006109              0.43    269.92      0  02:35       0.261     0.000
  WS02006228              0.01      2.06      0  02:34       0.000     0.000
  WS02006230              0.70    573.06      0  02:34       0.966     0.000
  WS02006232              0.16      0.73      0  02:47       0.000     0.000
  WS02006234              0.78    128.53      0  02:19       0.338     0.000
  WS02006242              0.90    137.70      0  02:29       0.410     0.000
  WS02006243              0.01     73.18      0  01:43       0.000     0.000
  WS02006245              0.01    101.14      0  01:43       0.000     0.000
  WS02006248              1.24    339.06      0  02:37       1.261     0.000
  WS02006249              2.27   1290.23      0  02:35       4.337     0.000
  WS02006252              0.44    622.93      0  02:35       0.571     0.000
  WS02006256              1.63    211.10      0  02:21       1.002     0.000
  YS02001580              0.01     45.68      0  02:19       0.000     0.000
  YS02001586              0.46    382.66      0  02:40       0.314     0.000
  YS02001601              0.64   1055.45      0  02:35       1.272     0.000
  YS02001602              0.46     62.00      0  02:34       0.095     0.000
  YS02001610              0.41    658.85      0  02:40       0.586     0.000
  YS02001625              0.36   1231.81      0  02:40       0.925     0.000
  YS02001629              0.07     68.11      0  02:32       0.008     0.000
  YS02001644              0.16    392.58      0  02:35       0.146     0.000
  YS02001779              0.13    145.33      0  02:35       0.034     0.000
  YS02001890              0.17    159.26      0  02:35       0.054     0.000
  YS02001907              0.36   1708.97      0  02:35       1.337     0.000
  YSB1171                 0.31    914.05      0  02:35       0.570     0.000
  JK-storage              0.66    763.66      0  02:29       1.239     0.000
  
  
  **********************
  Storage Volume Summary
  **********************
  
  --------------------------------------------------------------------------------------------------
                         Average     Avg  Evap Exfil       Maximum     Max    Time of Max    Maximum
                          Volume    Pcnt  Pcnt  Pcnt        Volume    Pcnt     Occurrence    Outflow
  Storage Unit           1000 m3    Full  Loss  Loss       1000 m3    Full    days hr:min        LPS
  --------------------------------------------------------------------------------------------------
  CC-storage               0.864      13     0     0         3.873      60       0  03:02    1584.79
  JK-storage               0.041      14     0     0         0.291     100       0  02:29    2300.00
  XR-storage               0.923      64     0     0         1.039      72       0  06:00     190.00
  
  
  ***********************
  Outfall Loading Summary
  ***********************
  
  -----------------------------------------------------------
                         Flow       Avg       Max       Total
                         Freq      Flow      Flow      Volume
  Outfall Node           Pcnt       LPS       LPS    10^6 ltr
  -----------------------------------------------------------
  CC-1                 100.00    362.15    683.00       8.037
  CC-2                  23.45    546.89    683.00       2.352
  JK-1                  23.11    208.42   1000.00       0.784
  JK-2                  14.57    126.79   1000.00       0.297
  WSC                   99.96    603.17   1506.16      13.545
  -----------------------------------------------------------
  System                52.22   1847.42   3765.54      25.015
  
  
  ********************
  Link Flow Summary
  ********************
  
  -----------------------------------------------------------------------------
                                 Maximum  Time of Max   Maximum    Max/    Max/
                                  |Flow|   Occurrence   |Veloc|    Full    Full
  Link                 Type          LPS  days hr:min     m/sec    Flow   Depth
  -----------------------------------------------------------------------------
  1                    CONDUIT   1506.16     0  02:42      3.70    0.52    0.51
  HS02004478WS02006287 CONDUIT   2304.77     0  02:34      2.56    0.65    1.00
  HS02004479HS02004480 CONDUIT    387.57     0  02:26      0.55    0.37    1.00
  HS02004480HS02004478 CONDUIT   2024.08     0  02:25      2.89    8.52    1.00
  HS02004770HS02004777 CONDUIT    686.75     0  02:21      0.98    1.26    1.00
  HS02004777HS02004785 CONDUIT    706.00     0  02:21      1.09    0.87    1.00
  HS02004785HS02004788 CONDUIT    631.86     0  02:22      1.36    4.76    1.00
  HS02004788HS02004792 CONDUIT    846.47     0  02:22      1.46    0.56    1.00
  HS02004792HS02004799 CONDUIT   1570.23     0  02:23      2.24    0.96    1.00
  HS02004799HS02004480 CONDUIT   1710.06     0  02:23      2.44    2.16    1.00
  HS02004802HS02004478 CONDUIT   1233.09     0  02:37      1.76    1.09    1.00
  HS02004807HS02004802 CONDUIT   1232.98     0  02:36      1.76    2.35    1.00
  HS02004817HS02004807 CONDUIT    897.83     0  02:35      1.28    0.53    1.00
  HS02004817HS02004824 CONDUIT    896.11     0  02:35      1.28    0.40    1.00
  HS02004824HS02004830 CONDUIT    552.78     0  02:22      0.79    0.72    1.00
  HS02004830HS02004837 CONDUIT    566.60     0  02:22      0.89    0.56    1.00
  HS02004837HS02004842 CONDUIT    703.62     0  02:24      1.01    0.42    1.00
  HS02004842HS02004848 CONDUIT    703.50     0  02:24      1.08    0.41    1.00
  HS02004848HS02004852 CONDUIT    921.84     0  02:24      1.51    1.04    1.00
  HS02004852HS02004856 CONDUIT    898.48     0  02:24      1.41    1.03    1.00
  HS02004856HS02004862 CONDUIT    958.29     0  02:24      1.62    0.96    1.00
  HS02004862HS02004870 CONDUIT   1005.02     0  02:40      1.66    1.09    1.00
  HS02004870HS02004876 CONDUIT   1206.03     0  02:35      1.72    0.80    1.00
  HS02004876HS02004881 CONDUIT   1425.26     0  02:35      2.34   15.16    1.00
  HS02004881HS02006253 CONDUIT   1544.70     0  02:35      2.21    0.30    1.00
  HS02004901HS02004770 CONDUIT    265.79     0  02:46      0.38    1.00    1.00
  WS02001211WS02001212 CONDUIT    214.39     0  03:08      0.54    0.16    0.69
  WS02001212WS02001213 CONDUIT    220.85     0  03:08      1.04    0.34    0.56
  WS02001213WS02003059 CONDUIT    227.12     0  03:08      0.47    0.37    0.89
  WS02003059WS02003060 CONDUIT    236.00     0  03:07      0.66    0.15    0.81
  WS02003060WS02003069 CONDUIT   1504.32     0  02:40      2.08    0.59    0.61
  WS02003066WSF200     CONDUIT   1298.68     0  02:35      3.24    0.22    0.38
  WS02003067WS02003066 CONDUIT   1298.57     0  02:35      2.00    0.42    0.56
  WS02003069WS02003072 CONDUIT   1504.52     0  02:41      1.89    0.72    0.66
  WS02003072WS02003073 CONDUIT   1504.44     0  02:41      2.05    3.25    0.62
  WS02004138WS02004139 CONDUIT    190.00     0  00:32      2.16    0.04    0.41
  WS02004139WS02001211 CONDUIT    198.11     0  03:09      0.55    0.25    0.61
  WS02004401WS02004402 CONDUIT   1298.86     0  02:35      1.65    1.56    1.00
  WS02004402WS02004403 CONDUIT   1299.04     0  02:35      1.65    1.87    1.00
  WS02004403WS02004404 CONDUIT   1299.36     0  02:35      1.65    0.94    1.00
  WS02004404WS02004405 CONDUIT   1299.78     0  02:35      1.65   12.73    1.00
  WS02004405WS02004406 CONDUIT   1300.30     0  02:35      1.66    2.56    1.00
  WS02004406WS02004407 CONDUIT   1299.72     0  02:35      1.68    0.58    0.96
  WS02004407WS02004409 CONDUIT   1298.40     0  02:35      1.80    0.46    0.96
  WS02004409WS02004410 CONDUIT   1298.52     0  02:35      1.65    1.68    1.00
  WS02004410WS02004411 CONDUIT   1298.31     0  02:35      1.65    1.77    1.00
  WS02004411WS02004412 CONDUIT   1298.38     0  02:35      1.65    1.84    1.00
  WS02004412WS02004413 CONDUIT   1298.50     0  02:35      1.65    0.87    1.00
  WS02004413WS02003067 CONDUIT   1298.55     0  02:35      2.01    0.56    0.77
  WS02006109WS02006110 CONDUIT   1125.75     0  02:48      2.24    2.16    1.00
  WS02006110WS02006113 CONDUIT   1125.90     0  02:48      2.24    1.02    1.00
  WS02006111WS02006112 CONDUIT   1126.83     0  02:48      2.24    0.54    1.00
  WS02006112WS02006115 CONDUIT   1299.76     0  02:35      1.65    0.77    1.00
  WS02006113WS02006111 CONDUIT   1126.34     0  02:49      2.67    1.35    1.00
  WS02006115WS02006116 CONDUIT   1299.52     0  02:35      1.65    1.67    1.00
  WS02006116WS02004401 CONDUIT   1299.51     0  02:34      1.65    1.79    1.00
  WS02006228WS02006109 CONDUIT   1287.69     0  02:34      2.56    5.63    1.00
  WS02006229WS02006228 CONDUIT   1289.86     0  02:34      2.57    4.27    1.00
  WS02006230WS02006229 CONDUIT   1015.44     0  02:34      2.64   22.60    1.00
  WS02006231WS02006230 CONDUIT    453.33     0  02:26      1.36    6.88    1.00
  WS02006232WS02006231 CONDUIT    453.50     0  02:26      1.18    0.95    1.00
  WS02006234WS02006232 CONDUIT    453.21     0  02:51      1.20    0.92    1.00
  WS02006235WS02006234 CONDUIT    439.68     0  04:00      1.19    4.64    1.00
  WS02006238WS02006235 CONDUIT    416.42     0  02:38      1.22    0.93    1.00
  WS02006239WS02006238 CONDUIT    415.45     0  02:38      1.08    1.33    1.00
  WS02006240WS02006239 CONDUIT    415.49     0  02:38      1.22    1.31    1.00
  WS02006242WS02006240 CONDUIT    415.15     0  02:55      1.09    1.65    1.00
  WS02006243WS02006242 CONDUIT    410.15     0  04:00      1.39    0.88    1.00
  WS02006245WS02006243 CONDUIT    438.49     0  01:43      1.38    1.30    1.00
  WS02006247WS02006245 CONDUIT    441.44     0  01:43      1.37    3.50    1.00
  WS02006248WS02006247 CONDUIT    462.22     0  01:42      1.39    1.01    1.00
  WS02006249WS02006248 CONDUIT    487.38     0  01:42      1.45    2.67    1.00
  WS02006251WS02006249 CONDUIT   1351.28     0  02:35      3.51    3.90    1.00
  WS02006252WS02006251 CONDUIT    411.71     0  01:44      4.84    1.51    1.00
  WS02006253WS02006251 CONDUIT   1573.48     0  02:35      4.09    4.72    1.00
  WS02006256WS02006235 CONDUIT    180.27     0  03:23      2.55    1.91    1.00
  WS02006280WS02006229 CONDUIT   2305.10     0  02:34      3.74    0.49    1.00
  WS02006284WS02006280 CONDUIT   2305.01     0  02:34      2.96    0.97    1.00
  WS02006287WS02006284 CONDUIT   2303.36     0  02:34      2.93    1.07    1.00
  WSF200WS02003060     CONDUIT   1298.95     0  02:35      2.28    0.29    0.50
  YS02001580YS02001583 CONDUIT     72.09     0  02:19      0.50    0.28    1.00
  YS02001583YS02001586 CONDUIT    108.25     0  02:18      0.45    0.16    1.00
  YS02001586YS02001590 CONDUIT    317.99     0  02:28      1.24    0.56    1.00
  YS02001590YS02001593 CONDUIT    318.09     0  02:38      1.13    2.00    1.00
  YS02001593YS02001596 CONDUIT    318.08     0  02:28      1.78    0.50    1.00
  YS02001596YS02001600 CONDUIT    318.19     0  02:28      1.28    0.62    1.00
  YS02001600YS02001601 CONDUIT    317.89     0  02:44      1.12    0.55    1.00
  YS02001601YS02001602 CONDUIT    490.03     0  02:18      1.73    1.77    1.00
  YS02001602YS02001605 CONDUIT    489.48     0  02:18      1.73   10.36    1.00
  YS02001605YS02001607 CONDUIT    488.99     0  02:57      1.73    2.68    1.00
  YS02001607YS02001610 CONDUIT    489.78     0  02:57      0.62    0.47    1.00
  YS02001610YS02001613 CONDUIT    491.02     0  02:57      0.63    0.57    1.00
  YS02001613YS02001616 CONDUIT    494.12     0  02:18      0.63    0.42    1.00
  YS02001616YS02001619 CONDUIT    497.17     0  02:18      0.68    0.86    1.00
  YS02001619YS02001622 CONDUIT    936.80     0  02:25      1.19    1.38    1.00
  YS02001622YS02001625 CONDUIT    935.89     0  02:25      1.19    0.50    1.00
  YS02001625YS02001629 CONDUIT    935.92     0  02:25      1.19    0.45    1.00
  YS02001629YS02163301 CONDUIT    935.93     0  02:25      1.19    1.15    1.00
  YS02001633YS02163601 CONDUIT   1367.54     0  02:26      1.74    1.44    1.00
  YS02001641YS02001644 CONDUIT   1363.99     0  02:26      1.74    4.41    1.00
  YS02001644YS02001647 CONDUIT   1761.39     0  02:26      2.24    1.03    1.00
  YS02001647YS02001649 CONDUIT   1764.34     0  02:26      2.28    0.93    1.00
  YS02001649YS02001757 CONDUIT   2037.83     0  02:26      2.60    1.24    1.00
  YS02001652YS02001649 CONDUIT    746.56     0  02:35      0.95    0.37    1.00
  YS02001655YS02001652 CONDUIT    746.77     0  02:35      1.20    0.36    1.00
  YS02001658YS02001655 CONDUIT    746.36     0  02:35      1.80    0.32    1.00
  YS02001661YS02001658 CONDUIT    745.80     0  02:35      2.28    0.29    0.95
  YS02001664YS02001661 CONDUIT    738.68     0  02:35      2.24    0.23    0.65
  YS02001745YS02001748 CONDUIT    468.57     0  02:35      2.12    0.18    0.84
  YS02001748YS02001751 CONDUIT    475.65     0  02:29      1.63    0.24    1.00
  YS02001751YS02001754 CONDUIT    468.58     0  02:35      1.27    0.23    1.00
  YS02001754YS02001757 CONDUIT    468.95     0  02:35      0.60    0.19    1.00
  YS02001757CaochengTiaoxuchi CONDUIT   3502.41     0  02:35      6.49    1.52    1.00
  YS02001759YS02001757 CONDUIT   1412.43     0  02:34      1.80    1.00    1.00
  YS02001762YS02001759 CONDUIT    816.76     0  02:40      1.04    0.94    1.00
  YS02001765YS02001762 CONDUIT    815.04     0  02:40      1.04    0.76    1.00
  YS02001767YS02001765 CONDUIT    814.86     0  02:40      1.04    1.02    1.00
  YS02001770YS02001767 CONDUIT    813.61     0  02:40      1.04    3.22    1.00
  YS02001774YS02001770 CONDUIT    152.74     0  02:27      0.21    0.10    1.00
  YS02001779YS02001774 CONDUIT    146.39     0  02:27      0.19    0.07    1.00
  YS02001783YS02001784 CONDUIT   1151.49     0  02:28      2.29    1.59    1.00
  YS02001784YS02001785 CONDUIT   1152.75     0  02:28      2.29    2.68    1.00
  YS02001786YS02001788 CONDUIT   1156.31     0  02:28      2.47    2.23    1.00
  YS02001788YS02001790 CONDUIT   1163.20     0  02:27      2.74    0.86    1.00
  YS02001790YS02001791 CONDUIT   1259.56     0  02:27      3.38    1.37    1.00
  YS02001791YS02001793 CONDUIT   1194.29     0  02:26      6.47    0.51    1.00
  YS02001793JiankangQianchi CONDUIT   1342.62     0  03:20     18.44    0.11    1.00
  YS02001882YS02001884 CONDUIT     28.93     0  02:23      0.11    0.03    1.00
  YS02001884YS02001887 CONDUIT     40.98     0  03:01      0.08    0.05    1.00
  YS02001887YS02001890 CONDUIT    674.45     0  02:35      0.86    1.15    1.00
  YS02001890YS02001895 CONDUIT    517.72     0  02:37      0.66    0.24    1.00
  YS02001895YS02001898 CONDUIT    518.16     0  02:37      0.66    0.90    1.00
  YS02001898YS02001901 CONDUIT    517.79     0  02:37      0.66    0.33    1.00
  YS02001901YS02001904 CONDUIT    517.78     0  02:37      0.66    0.80    1.00
  YS02001904YS02001907 CONDUIT    517.83     0  02:37      0.66    0.18    1.00
  YS02001907YS02006553 CONDUIT    685.44     0  02:49      0.76    0.81    1.00
  YS02001910YS02001907 CONDUIT   1238.47     0  02:35      1.58    0.70    1.00
  YS02001915YS02001910 CONDUIT   1238.93     0  02:35      1.58    0.62    1.00
  YS02001918YS02001915 CONDUIT    452.77     0  02:27      0.58    0.25    1.00
  YS02001920YS02001918 CONDUIT    450.68     0  02:27      0.62    0.44    1.00
  YS02001923YS02001920 CONDUIT    446.47     0  02:27      0.69    0.20    1.00
  YS02001926YS02001923 CONDUIT    414.14     0  02:35      0.94    0.59    1.00
  YS02001929YS02001926 CONDUIT    413.88     0  02:35      1.06    0.20    1.00
  YS02006553YS02006556 CONDUIT    685.21     0  02:50      0.87    0.59    1.00
  YS02006556YS02006558 CONDUIT    688.78     0  02:50      0.88    0.54    1.00
  YS02006558YS02006561 CONDUIT   1151.40     0  02:28      4.07    2.54    1.00
  YS02006561YS02001783 CONDUIT   1151.30     0  02:28      2.29    0.60    1.00
  YS02163301YS02001633 CONDUIT    935.25     0  02:25      1.19    0.88    1.00
  YS02163601YS02164001 CONDUIT   1367.44     0  02:26      1.74    1.21    1.00
  YS02164001YS02001641 CONDUIT   1365.47     0  02:26      1.74    1.86    1.00
  YSB1154YSB6556       CONDUIT    377.39     0  02:35      0.98    0.68    1.00
  YSB1171HS02004479    CONDUIT    386.75     0  02:26      0.77    0.26    1.00
  YSB1174YSB1171       CONDUIT    316.20     0  02:35      0.82    0.48    1.00
  YSB6556YSB1171       CONDUIT    377.95     0  02:35      0.98    0.39    1.00
  CC-R1                PUMP       683.00     0  00:00              1.00
  CC-R2                PUMP       683.00     0  00:00              1.00
  CC-S1                PUMP       200.00     0  00:00              1.00
  CC-S2                PUMP       200.00     0  00:20              1.00
  JK-R1                PUMP      1000.00     0  00:00              1.00
  JK-R2                PUMP      1000.00     0  00:00              1.00
  JK-S                 PUMP       300.00     0  01:57              1.00
  XR-1                 PUMP        95.00     0  00:10              1.00
  XR-2                 PUMP        95.00     0  00:29              1.00
  XR-3                 PUMP         0.00     0  00:00              0.00
  XR-4                 PUMP         0.00     0  00:00              0.00
  
  
  ***************************
  Flow Classification Summary
  ***************************
  
  -------------------------------------------------------------------------------------
                      Adjusted    ---------- Fraction of Time in Flow Class ---------- 
                       /Actual         Up    Down  Sub   Sup   Up    Down  Norm  Inlet 
  Conduit               Length    Dry  Dry   Dry   Crit  Crit  Crit  Crit  Ltd   Ctrl  
  -------------------------------------------------------------------------------------
  1                       1.00   0.00  0.00  0.00  0.00  1.00  0.00  0.00  0.43  0.00
  HS02004478WS02006287    1.00   0.18  0.00  0.00  0.57  0.25  0.00  0.00  0.44  0.00
  HS02004479HS02004480    1.00   0.08  0.00  0.00  0.92  0.00  0.00  0.00  0.15  0.00
  HS02004480HS02004478    1.00   0.15  0.00  0.00  0.49  0.00  0.00  0.36  0.00  0.00
  HS02004770HS02004777    1.00   0.00  0.15  0.00  0.85  0.00  0.00  0.00  0.04  0.00
  HS02004777HS02004785    1.00   0.00  0.00  0.00  1.00  0.00  0.00  0.00  0.16  0.00
  HS02004785HS02004788    1.00   0.00  0.00  0.00  1.00  0.00  0.00  0.00  0.00  0.00
  HS02004788HS02004792    1.00   0.00  0.00  0.00  0.97  0.03  0.00  0.00  0.87  0.00
  HS02004792HS02004799    1.00   0.00  0.00  0.00  0.96  0.04  0.00  0.00  0.82  0.00
  HS02004799HS02004480    1.00   0.01  0.07  0.00  0.83  0.00  0.10  0.00  0.00  0.00
  HS02004802HS02004478    1.00   0.15  0.00  0.00  0.85  0.00  0.00  0.00  0.03  0.00
  HS02004807HS02004802    1.00   0.15  0.00  0.00  0.84  0.00  0.00  0.01  0.00  0.00
  HS02004817HS02004807    1.00   0.00  0.15  0.00  0.85  0.00  0.00  0.00  0.01  0.00
  HS02004817HS02004824    1.00   0.00  0.00  0.00  1.00  0.00  0.00  0.00  0.76  0.00
  HS02004824HS02004830    1.00   0.00  0.00  0.00  1.00  0.00  0.00  0.00  0.02  0.00
  HS02004830HS02004837    1.00   0.00  0.00  0.00  0.99  0.01  0.00  0.00  0.84  0.00
  HS02004837HS02004842    1.00   0.00  0.00  0.00  0.98  0.02  0.00  0.00  0.14  0.00
  HS02004842HS02004848    1.00   0.00  0.15  0.00  0.85  0.00  0.00  0.00  0.39  0.00
  HS02004848HS02004852    1.00   0.15  0.00  0.00  0.85  0.00  0.00  0.00  0.58  0.00
  HS02004852HS02004856    1.00   0.15  0.01  0.00  0.85  0.00  0.00  0.00  0.56  0.00
  HS02004856HS02004862    1.00   0.00  0.19  0.00  0.81  0.00  0.00  0.00  0.64  0.00
  HS02004862HS02004870    1.00   0.00  0.00  0.00  1.00  0.00  0.00  0.00  0.05  0.00
  HS02004870HS02004876    1.00   0.02  0.00  0.00  0.98  0.01  0.00  0.00  0.80  0.00
  HS02004876HS02004881    1.00   0.06  0.00  0.00  0.74  0.20  0.00  0.00  0.00  0.00
  HS02004881HS02006253    1.00   0.02  0.06  0.00  0.42  0.01  0.00  0.48  0.34  0.00
  HS02004901HS02004770    1.00   0.15  0.00  0.00  0.85  0.00  0.00  0.00  0.00  0.00
  WS02001211WS02001212    1.00   0.00  0.07  0.00  0.93  0.00  0.00  0.00  0.00  0.00
  WS02001212WS02001213    1.00   0.07  0.00  0.00  0.46  0.00  0.47  0.00  0.00  0.00
  WS02001213WS02003059    1.00   0.01  0.02  0.00  0.97  0.00  0.00  0.00  0.00  0.00
  WS02003059WS02003060    1.00   0.00  0.00  0.00  0.99  0.01  0.00  0.00  0.04  0.00
  WS02003060WS02003069    1.00   0.00  0.00  0.00  0.97  0.03  0.00  0.00  0.16  0.00
  WS02003066WSF200        1.00   0.12  0.00  0.00  0.00  0.88  0.00  0.00  0.47  0.00
  WS02003067WS02003066    1.00   0.11  0.00  0.00  0.88  0.00  0.00  0.00  0.00  0.00
  WS02003069WS02003072    1.00   0.00  0.00  0.00  0.98  0.02  0.00  0.00  0.45  0.00
  WS02003072WS02003073    1.00   0.00  0.00  0.00  0.00  0.00  0.00  1.00  0.00  0.00
  WS02004138WS02004139    1.00   0.05  0.01  0.00  0.93  0.01  0.00  0.00  0.97  0.00
  WS02004139WS02001211    1.00   0.00  0.02  0.00  0.98  0.00  0.00  0.00  0.00  0.00
  WS02004401WS02004402    1.00   0.07  0.00  0.00  0.92  0.00  0.00  0.00  0.00  0.00
  WS02004402WS02004403    1.00   0.08  0.00  0.00  0.92  0.00  0.00  0.00  0.00  0.00
  WS02004403WS02004404    1.00   0.00  0.08  0.00  0.92  0.00  0.00  0.00  0.00  0.00
  WS02004404WS02004405    1.00   0.00  0.00  0.00  1.00  0.00  0.00  0.00  0.00  0.00
  WS02004405WS02004406    1.00   0.00  0.00  0.00  1.00  0.00  0.00  0.00  0.01  0.00
  WS02004406WS02004407    1.00   0.00  0.10  0.00  0.90  0.00  0.00  0.00  0.00  0.00
  WS02004407WS02004409    1.00   0.10  0.00  0.00  0.89  0.01  0.00  0.00  0.73  0.00
  WS02004409WS02004410    1.00   0.10  0.00  0.00  0.90  0.00  0.00  0.00  0.00  0.00
  WS02004410WS02004411    1.00   0.10  0.00  0.00  0.90  0.00  0.00  0.00  0.00  0.00
  WS02004411WS02004412    1.00   0.10  0.00  0.00  0.89  0.00  0.00  0.00  0.00  0.00
  WS02004412WS02004413    1.00   0.11  0.00  0.00  0.89  0.00  0.00  0.00  0.00  0.00
  WS02004413WS02003067    1.00   0.11  0.01  0.00  0.00  0.00  0.89  0.00  0.00  0.00
  WS02006109WS02006110    1.00   0.00  0.03  0.00  0.93  0.00  0.03  0.00  0.00  0.00
  WS02006110WS02006113    1.00   0.03  0.04  0.00  0.93  0.00  0.00  0.00  0.00  0.00
  WS02006111WS02006112    1.00   0.07  0.00  0.00  0.93  0.00  0.00  0.00  0.64  0.00
  WS02006112WS02006115    1.00   0.07  0.00  0.00  0.92  0.00  0.00  0.00  0.00  0.00
  WS02006113WS02006111    1.00   0.07  0.00  0.00  0.25  0.68  0.00  0.00  0.12  0.00
  WS02006115WS02006116    1.00   0.07  0.00  0.00  0.92  0.00  0.00  0.01  0.00  0.00
  WS02006116WS02004401    1.00   0.07  0.00  0.00  0.93  0.00  0.00  0.00  0.00  0.00
  WS02006228WS02006109    1.00   0.00  0.00  0.00  0.99  0.00  0.00  0.00  0.01  0.00
  WS02006229WS02006228    1.00   0.00  0.00  0.00  0.97  0.00  0.00  0.03  0.00  0.00
  WS02006230WS02006229    1.00   0.00  0.00  0.00  0.93  0.00  0.00  0.07  0.00  0.00
  WS02006231WS02006230    1.00   0.05  0.00  0.00  0.44  0.00  0.51  0.00  0.00  0.00
  WS02006232WS02006231    1.00   0.04  0.01  0.00  0.94  0.00  0.01  0.00  0.00  0.00
  WS02006234WS02006232    1.00   0.04  0.00  0.00  0.96  0.01  0.00  0.00  0.00  0.00
  WS02006235WS02006234    1.00   0.03  0.00  0.00  0.90  0.00  0.07  0.00  0.00  0.00
  WS02006238WS02006235    1.00   0.03  0.01  0.00  0.96  0.01  0.00  0.00  0.00  0.00
  WS02006239WS02006238    1.00   0.02  0.00  0.00  0.97  0.00  0.00  0.01  0.00  0.00
  WS02006240WS02006239    1.00   0.02  0.00  0.00  0.89  0.00  0.00  0.08  0.01  0.00
  WS02006242WS02006240    1.00   0.01  0.01  0.00  0.96  0.00  0.02  0.00  0.00  0.00
  WS02006243WS02006242    1.00   0.01  0.00  0.00  0.97  0.00  0.00  0.02  0.37  0.00
  WS02006245WS02006243    1.00   0.01  0.00  0.00  0.90  0.00  0.00  0.09  0.01  0.00
  WS02006247WS02006245    1.00   0.00  0.00  0.00  0.97  0.00  0.00  0.02  0.00  0.00
  WS02006248WS02006247    1.00   0.00  0.00  0.00  0.98  0.00  0.00  0.01  0.30  0.00
  WS02006249WS02006248    1.00   0.00  0.00  0.00  0.76  0.00  0.24  0.00  0.00  0.00
  WS02006251WS02006249    1.00   0.00  0.00  0.00  1.00  0.00  0.00  0.00  0.26  0.00
  WS02006252WS02006251    1.00   0.02  0.04  0.00  0.36  0.00  0.58  0.00  0.00  0.00
  WS02006253WS02006251    1.00   0.00  0.00  0.00  1.00  0.00  0.00  0.00  0.00  0.00
  WS02006256WS02006235    1.00   0.03  0.00  0.00  0.96  0.01  0.00  0.00  0.00  0.00
  WS02006280WS02006229    1.00   0.15  0.00  0.00  0.20  0.05  0.00  0.60  0.02  0.00
  WS02006284WS02006280    1.00   0.15  0.00  0.00  0.14  0.01  0.00  0.70  0.00  0.00
  WS02006287WS02006284    1.00   0.13  0.05  0.00  0.44  0.38  0.00  0.00  0.50  0.00
  WSF200WS02003060        1.00   0.00  0.12  0.00  0.49  0.39  0.00  0.00  0.42  0.00
  YS02001580YS02001583    1.00   0.36  0.40  0.00  0.24  0.00  0.00  0.00  0.49  0.00
  YS02001583YS02001586    1.00   0.17  0.54  0.00  0.29  0.00  0.00  0.00  0.49  0.00
  YS02001586YS02001590    1.00   0.15  0.00  0.00  0.63  0.07  0.00  0.16  0.53  0.00
  YS02001590YS02001593    1.00   0.15  0.00  0.00  0.14  0.00  0.71  0.00  0.00  0.00
  YS02001593YS02001596    1.00   0.15  0.00  0.00  0.17  0.01  0.00  0.67  0.03  0.00
  YS02001596YS02001600    1.00   0.15  0.00  0.00  0.25  0.02  0.00  0.58  0.07  0.00
  YS02001600YS02001601    1.00   0.15  0.01  0.00  0.85  0.00  0.00  0.00  0.45  0.00
  YS02001601YS02001602    1.00   0.14  0.01  0.00  0.85  0.00  0.00  0.00  0.00  0.00
  YS02001602YS02001605    1.00   0.15  0.00  0.00  0.85  0.00  0.00  0.00  0.00  0.00
  YS02001605YS02001607    1.00   0.15  0.00  0.00  0.85  0.00  0.00  0.00  0.00  0.00
  YS02001607YS02001610    1.00   0.15  0.00  0.00  0.85  0.00  0.00  0.00  0.02  0.00
  YS02001610YS02001613    1.00   0.15  0.00  0.00  0.85  0.00  0.00  0.00  0.01  0.00
  YS02001613YS02001616    1.00   0.15  0.00  0.00  0.85  0.00  0.00  0.00  0.01  0.00
  YS02001616YS02001619    1.00   0.15  0.00  0.00  0.85  0.00  0.00  0.00  0.00  0.00
  YS02001619YS02001622    1.00   0.15  0.00  0.00  0.85  0.00  0.00  0.00  0.05  0.00
  YS02001622YS02001625    1.00   0.15  0.00  0.00  0.85  0.00  0.00  0.00  0.06  0.00
  YS02001625YS02001629    1.00   0.15  0.06  0.00  0.20  0.00  0.59  0.00  0.00  0.00
  YS02001629YS02163301    1.00   0.17  0.01  0.00  0.82  0.00  0.00  0.00  0.00  0.00
  YS02001633YS02163601    1.00   0.00  0.02  0.00  0.98  0.00  0.00  0.00  0.20  0.00
  YS02001641YS02001644    1.00   0.00  0.02  0.00  0.98  0.00  0.00  0.00  0.00  0.00
  YS02001644YS02001647    1.00   0.00  0.20  0.00  0.80  0.00  0.00  0.00  0.00  0.00
  YS02001647YS02001649    1.00   0.00  0.20  0.00  0.38  0.42  0.00  0.00  0.39  0.00
  YS02001649YS02001757    1.00   0.00  0.00  0.00  0.85  0.15  0.00  0.00  0.67  0.00
  YS02001652YS02001649    1.00   0.00  0.00  0.00  0.93  0.06  0.00  0.00  0.64  0.00
  YS02001655YS02001652    1.00   0.00  0.00  0.00  0.23  0.02  0.00  0.75  0.11  0.00
  YS02001658YS02001655    1.00   0.00  0.16  0.00  0.51  0.33  0.00  0.00  0.62  0.00
  YS02001661YS02001658    1.00   0.16  0.00  0.00  0.28  0.56  0.00  0.00  0.61  0.00
  YS02001664YS02001661    1.00   0.14  0.00  0.00  0.69  0.17  0.00  0.00  0.82  0.00
  YS02001745YS02001748    1.00   0.00  0.00  0.00  0.06  0.01  0.00  0.93  0.05  0.00
  YS02001748YS02001751    1.00   0.00  0.00  0.00  0.70  0.30  0.00  0.00  0.67  0.00
  YS02001751YS02001754    1.00   0.00  0.00  0.00  0.18  0.01  0.00  0.81  0.06  0.00
  YS02001754YS02001757    1.00   0.00  0.00  0.00  1.00  0.00  0.00  0.00  0.77  0.00
  YS02001757CaochengTiaoxuchi    1.00   0.00  0.00  0.00  0.34  0.66  0.00  0.00  0.22  0.00
  YS02001759YS02001757    1.00   0.00  0.00  0.00  1.00  0.00  0.00  0.00  0.54  0.00
  YS02001762YS02001759    1.00   0.00  0.00  0.00  1.00  0.00  0.00  0.00  0.07  0.00
  YS02001765YS02001762    1.00   0.00  0.00  0.00  1.00  0.00  0.00  0.00  0.61  0.00
  YS02001767YS02001765    1.00   0.00  0.00  0.00  1.00  0.00  0.00  0.00  0.00  0.00
  YS02001770YS02001767    1.00   0.00  0.00  0.00  1.00  0.00  0.00  0.00  0.00  0.00
  YS02001774YS02001770    1.00   0.01  0.14  0.00  0.85  0.00  0.00  0.00  0.04  0.00
  YS02001779YS02001774    1.00   0.00  0.00  0.00  1.00  0.00  0.00  0.00  0.70  0.00
  YS02001783YS02001784    1.00   0.00  0.22  0.00  0.78  0.00  0.00  0.00  0.39  0.00
  YS02001784YS02001785    1.00   0.00  0.00  0.00  1.00  0.00  0.00  0.00  0.23  0.00
  YS02001786YS02001788    1.00   0.00  0.00  0.00  0.78  0.22  0.00  0.00  0.00  0.00
  YS02001788YS02001790    1.00   0.00  0.00  0.00  0.36  0.64  0.00  0.00  0.70  0.00
  YS02001790YS02001791    1.00   0.00  0.00  0.00  0.17  0.83  0.00  0.00  0.14  0.00
  YS02001791YS02001793    1.00   0.00  0.00  0.00  0.13  0.87  0.00  0.00  0.00  0.00
  YS02001793JiankangQianchi    1.00   0.00  0.01  0.00  0.16  0.84  0.00  0.00  0.05  0.00
  YS02001882YS02001884    1.00   0.17  0.01  0.00  0.82  0.00  0.00  0.00  0.00  0.00
  YS02001884YS02001887    1.00   0.09  0.04  0.00  0.86  0.00  0.00  0.00  0.00  0.00
  YS02001887YS02001890    1.00   0.00  0.01  0.00  0.93  0.00  0.07  0.00  0.00  0.00
  YS02001890YS02001895    1.00   0.01  0.18  0.00  0.82  0.00  0.00  0.00  0.00  0.00
  YS02001895YS02001898    1.00   0.19  0.00  0.00  0.77  0.00  0.04  0.00  0.00  0.00
  YS02001898YS02001901    1.00   0.19  0.00  0.00  0.81  0.00  0.00  0.00  0.02  0.00
  YS02001901YS02001904    1.00   0.19  0.00  0.00  0.81  0.00  0.00  0.00  0.00  0.00
  YS02001904YS02001907    1.00   0.01  0.18  0.00  0.81  0.00  0.00  0.00  0.00  0.00
  YS02001907YS02006553    1.00   0.01  0.06  0.00  0.93  0.00  0.00  0.00  0.00  0.00
  YS02001910YS02001907    1.00   0.00  0.00  0.00  0.93  0.00  0.00  0.07  0.16  0.00
  YS02001915YS02001910    1.00   0.00  0.00  0.00  0.95  0.05  0.00  0.00  0.22  0.00
  YS02001918YS02001915    1.00   0.00  0.02  0.00  0.94  0.04  0.00  0.00  0.65  0.00
  YS02001920YS02001918    1.00   0.00  0.02  0.00  0.98  0.00  0.00  0.00  0.00  0.00
  YS02001923YS02001920    1.00   0.00  0.00  0.00  1.00  0.00  0.00  0.00  0.89  0.00
  YS02001926YS02001923    1.00   0.00  0.11  0.00  0.07  0.00  0.82  0.00  0.00  0.00
  YS02001929YS02001926    1.00   0.00  0.15  0.00  0.85  0.00  0.00  0.00  0.75  0.00
  YS02006553YS02006556    1.00   0.04  0.00  0.00  0.96  0.00  0.00  0.00  0.04  0.00
  YS02006556YS02006558    1.00   0.00  0.01  0.00  0.99  0.00  0.00  0.00  0.00  0.00
  YS02006558YS02006561    1.00   0.22  0.00  0.00  0.08  0.71  0.00  0.00  0.25  0.00
  YS02006561YS02001783    1.00   0.22  0.00  0.00  0.16  0.63  0.00  0.00  0.58  0.00
  YS02163301YS02001633    1.00   0.00  0.17  0.00  0.83  0.00  0.00  0.00  0.00  0.00
  YS02163601YS02164001    1.00   0.00  0.12  0.00  0.88  0.00  0.00  0.00  0.00  0.00
  YS02164001YS02001641    1.00   0.02  0.09  0.00  0.88  0.00  0.00  0.00  0.07  0.00
  YSB1154YSB6556          1.00   0.14  0.00  0.00  0.86  0.00  0.00  0.00  0.02  0.00
  YSB1171HS02004479       1.00   0.08  0.00  0.00  0.91  0.00  0.00  0.01  0.14  0.00
  YSB1174YSB1171          1.00   0.08  0.04  0.00  0.88  0.00  0.00  0.00  0.00  0.00
  YSB6556YSB1171          1.00   0.08  0.07  0.00  0.86  0.00  0.00  0.00  0.00  0.00
  
  
  *************************
  Conduit Surcharge Summary
  *************************
  
  ----------------------------------------------------------------------------
                                                           Hours        Hours 
                         --------- Hours Full --------   Above Full   Capacity
  Conduit                Both Ends  Upstream  Dnstream   Normal Flow   Limited
  ----------------------------------------------------------------------------
  HS02004478WS02006287        0.49      0.49      0.66      0.01         0.01
  HS02004479HS02004480        0.66      0.66      0.68      0.01         0.01
  HS02004480HS02004478        0.58      0.65      0.58      1.72         0.58
  HS02004770HS02004777        0.55      0.55      0.56      0.12         0.07
  HS02004777HS02004785        0.51      0.51      0.56      0.01         0.01
  HS02004785HS02004788        0.50      0.51      0.50      1.37         0.47
  HS02004788HS02004792        0.50      0.50      0.62      0.01         0.01
  HS02004792HS02004799        0.62      0.62      0.76      0.01         0.01
  HS02004799HS02004480        0.65      0.65      0.76      0.85         0.01
  HS02004802HS02004478        0.61      0.61      0.68      0.12         0.01
  HS02004807HS02004802        0.65      0.65      0.67      0.27         0.28
  HS02004817HS02004807        0.65      0.65      1.19      0.01         0.01
  HS02004817HS02004824        0.51      0.51      1.19      0.01         0.01
  HS02004824HS02004830        0.48      0.48      0.51      0.01         0.01
  HS02004830HS02004837        0.45      0.45      0.48      0.01         0.01
  HS02004837HS02004842        0.45      0.45      0.57      0.01         0.01
  HS02004842HS02004848        0.41      0.41      0.57      0.01         0.01
  HS02004848HS02004852        0.41      0.41      0.43      0.02         0.01
  HS02004852HS02004856        0.43      0.43      0.45      0.01         0.01
  HS02004856HS02004862        0.43      0.43      0.45      0.01         0.01
  HS02004862HS02004870        0.45      0.45      0.46      0.18         0.19
  HS02004870HS02004876        0.46      0.46      0.51      0.01         0.01
  HS02004876HS02004881        0.49      0.51      0.49      1.45         0.49
  HS02004881HS02006253        0.49      0.49      2.27      0.01         0.01
  HS02004901HS02004770        0.55      0.55      0.56      0.01         0.01
  WS02003072WS02003073        0.01      0.01      0.01      2.87         0.01
  WS02004401WS02004402        1.71      1.71      1.74      1.50         1.51
  WS02004402WS02004403        1.74      1.74      1.75      1.71         1.69
  WS02004403WS02004404        1.75      1.75      1.94      0.01         0.02
  WS02004404WS02004405        1.89      1.94      1.89      3.95         1.89
  WS02004405WS02004406        1.86      1.89      1.86      2.31         1.86
  WS02004406WS02004407        0.01      0.01      1.86      0.01         0.01
  WS02004407WS02004409        0.01      0.01      1.06      0.01         0.01
  WS02004409WS02004410        0.98      1.06      0.98      1.60         0.98
  WS02004410WS02004411        0.90      0.98      0.90      1.66         0.90
  WS02004411WS02004412        0.80      0.90      0.80      1.70         0.80
  WS02004412WS02004413        0.80      0.80      1.41      0.01         0.01
  WS02004413WS02003067        0.01      0.01      1.41      0.01         0.01
  WS02006109WS02006110        2.28      2.28      2.58      2.28         0.01
  WS02006110WS02006113        1.36      1.36      2.55      0.28         0.01
  WS02006111WS02006112        1.32      1.32      2.74      0.01         0.01
  WS02006112WS02006115        1.62      1.62      2.32      0.01         0.01
  WS02006113WS02006111        1.33      1.36      1.33      1.51         1.33
  WS02006115WS02006116        1.64      1.64      1.64      1.60         1.58
  WS02006116WS02004401        1.70      1.70      1.71      1.67         1.65
  WS02006228WS02006109        2.50      2.58      2.50      2.98         2.50
  WS02006229WS02006228        2.49      2.51      2.49      2.81         2.49
  WS02006230WS02006229        2.66      2.73      2.66      4.94         1.65
  WS02006231WS02006230        2.06      2.06      2.29      3.90         1.01
  WS02006232WS02006231        2.28      2.28      2.36      0.01         0.16
  WS02006234WS02006232        2.31      2.31      2.36      0.01         0.01
  WS02006235WS02006234        2.31      2.31      2.32      3.28         0.99
  WS02006238WS02006235        2.32      2.32      2.35      0.01         0.37
  WS02006239WS02006238        2.32      2.33      2.32      1.67         0.64
  WS02006240WS02006239        2.31      2.31      2.31      1.65         0.61
  WS02006242WS02006240        2.31      2.31      2.41      1.86         0.91
  WS02006243WS02006242        2.30      2.30      2.35      0.01         0.01
  WS02006245WS02006243        2.30      2.30      2.30      0.78         0.54
  WS02006247WS02006245        2.30      2.30      2.30      2.63         1.04
  WS02006248WS02006247        2.29      2.29      2.30      0.01         0.01
  WS02006249WS02006248        2.29      2.29      2.29      1.36         0.01
  WS02006251WS02006249        2.29      2.30      2.29      2.35         2.04
  WS02006252WS02006251        2.64      2.64      2.64      1.77         0.01
  WS02006253WS02006251        2.29      2.29      2.31      0.80         0.01
  WS02006256WS02006235        3.62      3.62      5.89      1.01         0.01
  WS02006280WS02006229        0.80      0.80      0.94      0.01         0.01
  WS02006284WS02006280        0.69      0.69      0.78      0.01         0.01
  WS02006287WS02006284        0.58      0.58      0.70      0.32         0.33
  YS02001580YS02001583        0.59      0.59      0.64      0.01         0.01
  YS02001583YS02001586        0.60      0.60      0.70      0.01         0.01
  YS02001586YS02001590        0.71      0.71      0.77      0.01         0.01
  YS02001590YS02001593        0.77      0.77      0.79      0.78         0.01
  YS02001593YS02001596        0.79      0.79      0.89      0.01         0.01
  YS02001596YS02001600        0.94      0.94      1.04      0.01         0.01
  YS02001600YS02001601        1.10      1.10      1.41      0.01         0.01
  YS02001601YS02001602        1.28      1.28      1.46      1.06         0.01
  YS02001602YS02001605        1.22      1.22      1.28      2.41         0.01
  YS02001605YS02001607        1.17      1.22      1.17      1.37         1.17
  YS02001607YS02001610        0.73      0.73      0.75      0.01         0.01
  YS02001610YS02001613        0.72      0.72      0.75      0.01         0.01
  YS02001613YS02001616        0.68      0.68      0.72      0.01         0.01
  YS02001616YS02001619        0.67      0.67      0.68      0.01         0.01
  YS02001619YS02001622        0.66      0.67      0.66      0.81         0.65
  YS02001622YS02001625        0.66      0.66      0.84      0.01         0.01
  YS02001625YS02001629        0.58      0.58      0.84      0.01         0.01
  YS02001629YS02163301        0.82      0.82      0.83      0.34         0.32
  YS02001633YS02163601        0.85      0.85      0.88      0.48         0.47
  YS02001641YS02001644        0.71      0.76      0.71      1.51         0.70
  YS02001644YS02001647        0.46      0.46      0.71      0.04         0.01
  YS02001647YS02001649        0.46      0.46      0.53      0.01         0.01
  YS02001649YS02001757        0.51      0.53      0.54      0.48         0.35
  YS02001652YS02001649        0.39      0.39      0.53      0.01         0.01
  YS02001655YS02001652        0.27      0.27      0.38      0.01         0.01
  YS02001658YS02001655        0.17      0.17      0.27      0.01         0.01
  YS02001661YS02001658        0.01      0.01      0.17      0.01         0.01
  YS02001745YS02001748        0.01      0.01      0.03      0.01         0.01
  YS02001748YS02001751        0.15      0.15      0.19      0.01         0.01
  YS02001751YS02001754        0.19      0.19      0.28      0.01         0.01
  YS02001754YS02001757        0.30      0.30      0.54      0.01         0.01
  YS02001757CaochengTiaoxuchi        0.30      0.54      0.84      0.46         0.13
  YS02001759YS02001757        0.47      0.47      0.54      0.02         0.05
  YS02001762YS02001759        0.44      0.44      0.47      0.01         0.05
  YS02001765YS02001762        0.41      0.41      0.44      0.01         0.01
  YS02001767YS02001765        0.39      0.39      0.41      0.06         0.09
  YS02001770YS02001767        0.39      0.39      0.39      0.57         0.34
  YS02001774YS02001770        0.37      0.37      0.43      0.01         0.01
  YS02001779YS02001774        0.29      0.29      0.43      0.01         0.01
  YS02001783YS02001784        0.65      0.66      0.65      0.72         0.59
  YS02001784YS02001785        0.60      0.65      0.60      0.98         0.60
  YS02001786YS02001788        0.54      0.60      0.54      0.88         0.54
  YS02001788YS02001790        0.54      0.54      0.78      0.01         0.01
  YS02001790YS02001791        0.78      0.78      0.83      0.45         0.35
  YS02001791YS02001793        0.83      0.83      0.88      0.01         0.01
  YS02001793JiankangQianchi        0.88      0.88      1.02      0.01         0.01
  YS02001882YS02001884        0.53      0.53      0.54      0.01         0.01
  YS02001884YS02001887        0.56      0.56      0.57      0.01         0.01
  YS02001887YS02001890        0.59      0.59      0.60      0.10         0.01
  YS02001890YS02001895        0.51      0.51      0.62      0.01         0.01
  YS02001895YS02001898        0.50      0.50      0.51      0.01         0.01
  YS02001898YS02001901        0.52      0.52      0.56      0.01         0.01
  YS02001901YS02001904        0.55      0.55      0.56      0.01         0.01
  YS02001904YS02001907        0.55      0.55      0.86      0.01         0.01
  YS02001907YS02006553        0.99      0.99      1.05      0.01         0.01
  YS02001910YS02001907        0.61      0.61      0.84      0.01         0.01
  YS02001915YS02001910        0.52      0.52      0.61      0.01         0.01
  YS02001918YS02001915        0.43      0.43      0.52      0.01         0.01
  YS02001920YS02001918        0.43      0.43      0.44      0.01         0.01
  YS02001923YS02001920        0.37      0.37      0.44      0.01         0.01
  YS02001926YS02001923        0.03      0.03      0.13      0.01         0.01
  YS02001929YS02001926        0.01      0.01      0.13      0.01         0.01
  YS02006553YS02006556        0.72      0.72      0.86      0.01         0.01
  YS02006556YS02006558        0.79      0.79      0.87      0.01         0.01
  YS02006558YS02006561        0.51      0.70      0.51      0.94         0.51
  YS02006561YS02001783        0.44      0.44      0.66      0.01         0.01
  YS02163301YS02001633        0.83      0.83      0.87      0.01         0.01
  YS02163601YS02164001        0.77      0.77      0.88      0.25         0.01
  YS02164001YS02001641        0.76      0.77      0.76      0.74         0.58
  YSB1154YSB6556              0.73      0.73      0.88      0.01         0.01
  YSB1171HS02004479           0.61      0.61      0.88      0.01         0.01
  YSB1174YSB1171              0.80      0.80      1.09      0.01         0.01
  YSB6556YSB1171              0.73      0.73      1.24      0.01         0.01
  
  
  ***************
  Pumping Summary
  ***************
  
  ---------------------------------------------------------------------------------------------------------
                                                  Min       Avg       Max     Total     Power    % Time Off
                        Percent   Number of      Flow      Flow      Flow    Volume     Usage    Pump Curve
  Pump                 Utilized   Start-Ups       LPS       LPS       LPS  10^6 ltr     Kw-hr    Low   High
  ---------------------------------------------------------------------------------------------------------
  CC-R1                  100.00           1      0.00    362.15    683.00     8.036    132.87    0.0   86.0
  CC-R2                   22.27           6      0.00    546.89    683.00     2.351     40.76    0.0   62.5
  CC-S1                   86.09           6      0.00    116.13    200.00     2.184     17.52    0.0   65.9
  CC-S2                   74.95           6      0.00     99.81    200.00     1.704     14.63    0.0   75.6
  JK-R1                   22.19           5      0.00    208.42   1000.00     0.785      3.42    0.0    0.0
  JK-R2                   13.85           3      0.00    126.79   1000.00     0.297      2.22    0.0    0.0
  JK-S                    88.87           1      0.00     99.29    300.00     2.011     29.18    0.0    0.0
  XR-1                    97.22           1      0.00     95.00     95.00     1.995      8.84    0.0    0.0
  XR-2                    91.93           1      0.00     95.00     95.00     1.886      8.00    0.0    0.0
  XR-3                     0.00           0      0.00      0.00      0.00     0.000      0.00    0.0    0.0
  XR-4                     0.00           0      0.00      0.00      0.00     0.000      0.00    0.0    0.0
  

  Analysis begun on:  Mon Aug 22 16:53:18 2022
  Analysis ended on:  Mon Aug 22 16:53:25 2022
  Total elapsed time: 00:00:07