
  EPA STORM WATER MANAGEMENT MODEL - VERSION 5.1 (Build 5.3.0.dev0)
  --------------------------------------------------------------

  WARNING 04: minimum elevation drop used for Conduit WS02004404WS02004405
  WARNING 03: negative offset ignored for Link YS02001904YS02001907
  
  *********************************************************
  NOTE: The summary statistics displayed in this report are
  based on results found at every computational time step,  
  not just on results from each reporting time step.
  *********************************************************
  
  ****************
  Analysis Options
  ****************
  Flow Units ............... LPS
  Process Models:
    Rainfall/Runoff ........ YES
    RDII ................... NO
    Snowmelt ............... NO
    Groundwater ............ NO
    Flow Routing ........... YES
    Ponding Allowed ........ NO
    Water Quality .......... NO
  Infiltration Method ...... HORTON
  Flow Routing Method ...... DYNWAVE
  Surcharge Method ......... EXTRAN
  Starting Date ............ 01/01/2000 00:00:00
  Ending Date .............. 01/01/2000 06:00:00
  Antecedent Dry Days ...... 8.0
  Report Time Step ......... 00:01:00
  Wet Time Step ............ 00:01:00
  Dry Time Step ............ 00:01:00
  Routing Time Step ........ 30.00 sec
  Variable Time Step ....... YES
  Maximum Trials ........... 8
  Number of Threads ........ 4
  Head Tolerance ........... 0.001500 m
  
  
  **************************        Volume         Depth
  Runoff Quantity Continuity     hectare-m            mm
  **************************     ---------       -------
  Total Precipitation ......         3.150        51.995
  Evaporation Loss .........         0.000         0.000
  Infiltration Loss ........         0.235         3.881
  Surface Runoff ...........         2.851        47.055
  Final Storage ............         0.065         1.068
  Continuity Error (%) .....        -0.018
  
  
  **************************        Volume        Volume
  Flow Routing Continuity        hectare-m      10^6 ltr
  **************************     ---------     ---------
  Dry Weather Inflow .......         0.472         4.722
  Wet Weather Inflow .......         2.851        28.507
  Groundwater Inflow .......         0.000         0.000
  RDII Inflow ..............         0.000         0.000
  External Inflow ..........         0.078         0.784
  External Outflow .........         2.756        27.559
  Flooding Loss ............         1.054        10.541
  Evaporation Loss .........         0.000         0.000
  Exfiltration Loss ........         0.000         0.000
  Initial Stored Volume ....         0.303         3.031
  Final Stored Volume ......         0.171         1.713
  Continuity Error (%) .....        -7.474
  
  
  *************************
  Highest Continuity Errors
  *************************
  Node JK-storage (-55.00%)
  Node YS02001583 (-11.71%)
  Node YS02001884 (5.09%)
  Node CC-storage (-4.27%)
  Node HS02004842 (1.47%)
  
  
  ***************************
  Time-Step Critical Elements
  ***************************
  Link WS02006252WS02006251 (41.20%)
  Link YS02001793JiankangQianchi (13.92%)
  Link WS02006280WS02006229 (13.32%)
  Link WS02006238WS02006235 (9.19%)
  Link WS02004404WS02004405 (4.75%)
  
  
  ********************************
  Highest Flow Instability Indexes
  ********************************
  Link WS02006113WS02006111 (33)
  Link WS02006111WS02006112 (22)
  Link WS02004404WS02004405 (21)
  Link WS02006238WS02006235 (21)
  Link WS02006252WS02006251 (19)
  
  
  *************************
  Routing Time Step Summary
  *************************
  Minimum Time Step           :     0.50 sec
  Average Time Step           :     1.70 sec
  Maximum Time Step           :     6.74 sec
  Percent in Steady State     :    -0.00
  Average Iterations per Step :     3.28
  Percent Not Converging      :    12.95
  
  
  ***************************
  Subcatchment Runoff Summary
  ***************************
  
  ------------------------------------------------------------------------------------------------------------------------------
                            Total      Total      Total      Total     Imperv       Perv      Total       Total     Peak  Runoff
                           Precip      Runon       Evap      Infil     Runoff     Runoff     Runoff      Runoff   Runoff   Coeff
  Subcatchment                 mm         mm         mm         mm         mm         mm         mm    10^6 ltr      LPS
  ------------------------------------------------------------------------------------------------------------------------------
  sub0                      52.00       0.00       0.00       1.01      47.09       2.64      49.73        0.04    20.49   0.956
  sub1                      52.00       0.00       0.00       1.70      44.97       4.02      48.99        0.33   148.38   0.942
  sub10                     52.00       0.00       0.00       1.20      46.50       2.96      49.46        0.55   252.01   0.951
  sub11                     52.00       0.00       0.00       1.18      46.53       2.98      49.51        0.58   273.12   0.952
  sub12                     52.00       0.00       0.00       1.93      44.04       4.84      48.88        0.43   208.62   0.940
  sub14                     52.00       0.00       0.00       1.35      46.01       3.33      49.34        0.47   220.54   0.949
  sub15                     52.00       0.00       0.00       5.18      35.39      10.42      45.81        0.79   336.18   0.881
  sub16                     52.00       0.00       0.00       5.39      33.91      11.77      45.68        0.48   218.04   0.878
  sub17                     52.00       0.00       0.00       5.26      34.41      11.39      45.80        0.39   178.19   0.881
  sub2                      52.00       0.00       0.00       7.30      31.79      11.94      43.73        0.41   148.89   0.841
  sub22                     52.00       0.00       0.00       7.81      28.83      14.55      43.38        2.74  1091.65   0.834
  sub23                     52.00       0.00       0.00       6.40      31.87      12.84      44.71        2.13   907.07   0.860
  sub3                      52.00       0.00       0.00       7.88      31.72      11.36      43.08        0.97   320.33   0.829
  sub4                      52.00       0.00       0.00       1.87      44.67       3.85      48.52        1.01   358.71   0.933
  sub5                      52.00       0.00       0.00       1.05      46.99       2.59      49.58        0.56   256.44   0.954
  sub60                     52.00       0.00       0.00       1.81      44.52       4.43      48.95        0.64   307.47   0.941
  sub61                     52.00       0.00       0.00       2.61      42.00       6.23      48.22        0.88   423.20   0.927
  sub62                     52.00       0.00       0.00       1.21      46.49       2.96      49.44        1.35   620.47   0.951
  sub63                     52.00       0.00       0.00       4.78      35.92      10.30      46.22        1.05   473.55   0.889
  sub64                     52.00       0.00       0.00       2.42      42.92       5.38      48.30        1.16   506.29   0.929
  sub65                     52.00       0.00       0.00       2.10      43.89       4.66      48.56        1.34   568.79   0.934
  sub66                     52.00       0.00       0.00       5.80      35.73       9.28      45.01        2.10   722.93   0.866
  sub67                     52.00       0.00       0.00       1.17      46.57       3.00      49.56        0.92   446.29   0.953
  sub68                     52.00       0.00       0.00       2.16      43.49       5.12      48.60        1.34   625.16   0.935
  sub69                     52.00       0.00       0.00       1.91      44.00       5.89      49.89        1.85   766.55   0.960
  sub7                      52.00       0.00       0.00       1.33      46.04       3.35      49.39        0.17    79.80   0.950
  sub70                     52.00       0.00       0.00       6.17      34.02      11.51      45.53        1.32   410.70   0.876
  sub71                     52.00       0.00       0.00       1.23      46.41       2.93      49.34        1.29   554.64   0.949
  sub72                     52.00       0.00       0.00       1.09      46.81       2.55      49.35        0.68   267.77   0.949
  sub8                      52.00       0.00       0.00       1.34      46.02       3.34      49.36        0.32   149.09   0.949
  sub9                      52.00       0.00       0.00       1.35      46.02       3.33      49.35        0.24   111.80   0.949
  
  
  ******************
  Node Depth Summary
  ******************
  
  ---------------------------------------------------------------------------------
                                 Average  Maximum  Maximum  Time of Max    Reported
                                   Depth    Depth      HGL   Occurrence   Max Depth
  Node                 Type       Meters   Meters   Meters  days hr:min      Meters
  ---------------------------------------------------------------------------------
  HS02004478           JUNCTION     0.24     1.56    10.79     0  01:41        1.48
  HS02004479           JUNCTION     0.33     1.69    10.89     0  01:41        1.65
  HS02004480           JUNCTION     0.29     1.67    10.91     0  01:41        1.61
  HS02004770           JUNCTION     0.29     1.42    11.25     0  01:38        1.42
  HS02004777           JUNCTION     0.31     1.48    11.28     0  01:38        1.45
  HS02004785           JUNCTION     0.21     1.49    11.39     0  01:38        1.32
  HS02004788           JUNCTION     0.17     1.42    11.32     0  01:38        1.31
  HS02004792           JUNCTION     0.24     1.60    11.12     0  01:37        1.60
  HS02004799           JUNCTION     0.36     1.76    10.97     0  01:38        1.76
  HS02004802           JUNCTION     0.33     1.77    10.90     0  01:41        1.61
  HS02004807           JUNCTION     0.31     1.91    11.08     0  01:41        1.62
  HS02004817           JUNCTION     0.60     2.38    11.23     0  01:41        1.95
  HS02004824           JUNCTION     0.18     1.95    11.36     0  01:41        1.42
  HS02004830           JUNCTION     0.17     1.98    11.45     0  01:41        1.38
  HS02004837           JUNCTION     0.14     1.93    11.51     0  01:41        1.27
  HS02004842           JUNCTION     0.43     2.22    11.49     0  01:41        1.58
  HS02004848           JUNCTION     0.12     2.02    11.62     0  01:41        1.25
  HS02004852           JUNCTION     0.13     2.12    11.63     0  01:41        1.29
  HS02004856           JUNCTION     0.18     2.07    11.50     0  01:41        1.33
  HS02004862           JUNCTION     0.14     2.00    11.38     0  01:41        1.32
  HS02004870           JUNCTION     0.13     2.10    11.39     0  01:40        1.86
  HS02004876           JUNCTION     0.18     2.04    11.07     0  01:41        1.86
  HS02004881           JUNCTION     0.11     2.15    11.18     0  01:40        1.57
  HS02004901           JUNCTION     0.30     1.42    11.24     0  01:38        1.42
  WS02001211           JUNCTION     0.64     0.80     5.64     0  01:46        0.80
  WS02001212           JUNCTION     0.39     0.58     5.64     0  01:42        0.57
  WS02001213           JUNCTION     0.62     0.87     5.64     0  01:40        0.86
  WS02003059           JUNCTION     0.69     0.94     5.62     0  01:43        0.94
  WS02003060           JUNCTION     0.42     0.68     5.61     0  01:44        0.68
  WS02003066           JUNCTION     0.27     0.45     6.00     0  01:45        0.45
  WS02003067           JUNCTION     0.62     0.88     6.20     0  01:43        0.88
  WS02003069           JUNCTION     0.47     0.77     5.35     0  01:46        0.77
  WS02003072           JUNCTION     0.52     0.80     5.17     0  01:47        0.80
  WS02003073           JUNCTION     0.32     0.51     4.57     0  01:46        0.51
  WS02004138           JUNCTION     0.13     0.14     7.39     0  00:32        0.14
  WS02004139           JUNCTION     0.58     0.73     5.64     0  01:44        0.73
  WS02004401           JUNCTION     0.87     1.78     7.78     0  01:32        1.75
  WS02004402           JUNCTION     0.88     1.75     7.71     0  01:32        1.70
  WS02004403           JUNCTION     0.88     1.70     7.63     0  01:32        1.63
  WS02004404           JUNCTION     0.94     1.71     7.56     0  01:32        1.64
  WS02004405           JUNCTION     0.93     1.64     7.49     0  01:32        1.59
  WS02004406           JUNCTION     0.91     1.50     7.33     0  01:44        1.49
  WS02004407           JUNCTION     0.31     0.85     7.16     0  01:45        0.85
  WS02004409           JUNCTION     0.63     1.33     7.10     0  01:44        1.33
  WS02004410           JUNCTION     0.63     1.25     6.97     0  01:45        1.24
  WS02004411           JUNCTION     0.63     1.17     6.85     0  01:45        1.17
  WS02004412           JUNCTION     0.63     1.08     6.72     0  01:45        1.08
  WS02004413           JUNCTION     0.77     1.13     6.60     0  01:45        1.13
  WS02006109           JUNCTION     1.11     2.64     9.26     0  01:38        2.64
  WS02006110           JUNCTION     1.03     2.35     8.94     0  01:43        2.34
  WS02006111           JUNCTION     0.49     1.63     8.33     0  01:44        1.61
  WS02006112           JUNCTION     1.10     2.24     8.12     0  01:44        2.23
  WS02006113           JUNCTION     0.58     1.75     8.64     0  01:44        1.74
  WS02006115           JUNCTION     0.80     1.85     7.99     0  01:32        1.83
  WS02006116           JUNCTION     0.86     1.85     7.89     0  01:32        1.82
  WS02006228           JUNCTION     1.18     3.03     9.68     0  01:38        3.00
  WS02006229           JUNCTION     1.20     3.22     9.91     0  01:41        3.17
  WS02006230           JUNCTION     1.13     2.65     9.39     0  01:36        2.65
  WS02006231           JUNCTION     0.84     2.19     9.31     0  02:00        2.18
  WS02006232           JUNCTION     0.94     2.18     9.22     0  01:36        2.18
  WS02006234           JUNCTION     0.83     1.96     9.12     0  01:30        1.96
  WS02006235           JUNCTION     0.85     2.00     9.16     0  01:30        1.93
  WS02006238           JUNCTION     0.87     2.05     9.19     0  01:30        1.93
  WS02006239           JUNCTION     0.82     2.03     9.24     0  01:29        1.78
  WS02006240           JUNCTION     0.76     2.03     9.32     0  01:29        1.62
  WS02006242           JUNCTION     0.80     1.55     8.82     0  01:29        1.55
  WS02006243           JUNCTION     0.69     1.41     8.83     0  01:30        1.36
  WS02006245           JUNCTION     0.67     1.32     8.80     0  01:30        1.26
  WS02006247           JUNCTION     0.68     1.35     8.85     0  03:21        1.22
  WS02006248           JUNCTION     0.62     1.10     8.69     0  01:29        1.10
  WS02006249           JUNCTION     0.64     1.09     8.69     0  00:08        1.09
  WS02006251           JUNCTION     0.72     2.21     9.88     0  01:40        2.11
  WS02006252           JUNCTION     0.48     1.50     9.74     0  00:00        1.50
  WS02006253           JUNCTION     0.79     3.52    11.16     0  01:40        2.77
  WS02006256           JUNCTION     1.19     2.35     9.28     0  00:00        2.35
  WS02006280           JUNCTION     0.32     1.74    10.01     0  01:41        1.69
  WS02006284           JUNCTION     0.57     1.94    10.33     0  01:41        1.87
  WS02006287           JUNCTION     0.31     1.72    10.67     0  01:41        1.64
  WSF200               JUNCTION     0.27     0.51     5.74     0  01:44        0.51
  YS02001580           JUNCTION     0.09     1.05     9.59     0  01:38        0.77
  YS02001583           JUNCTION     0.12     1.14     9.64     0  01:38        0.81
  YS02001586           JUNCTION     0.21     1.13     9.30     0  01:37        1.13
  YS02001590           JUNCTION     0.32     1.40     9.26     0  01:37        1.37
  YS02001593           JUNCTION     0.25     1.46     9.32     0  01:37        1.28
  YS02001596           JUNCTION     0.34     1.77     9.19     0  01:37        1.65
  YS02001600           JUNCTION     0.42     1.87     9.00     0  01:37        1.86
  YS02001601           JUNCTION     0.62     2.06     8.90     0  01:37        2.06
  YS02001602           JUNCTION     0.53     1.87     8.77     0  01:38        1.87
  YS02001605           JUNCTION     0.49     1.78     8.68     0  01:38        1.77
  YS02001607           JUNCTION     0.47     1.65     8.49     0  01:43        1.64
  YS02001610           JUNCTION     0.51     1.68     8.48     0  01:38        1.68
  YS02001613           JUNCTION     0.47     1.67     8.51     0  01:38        1.64
  YS02001616           JUNCTION     0.40     1.61     8.52     0  01:38        1.58
  YS02001619           JUNCTION     0.38     1.61     8.54     0  01:38        1.56
  YS02001622           JUNCTION     0.37     1.62     8.52     0  01:38        1.55
  YS02001625           JUNCTION     0.61     1.78     8.38     0  01:38        1.78
  YS02001629           JUNCTION     0.51     1.85     8.40     0  01:38        1.85
  YS02001633           JUNCTION     0.58     2.01     8.46     0  01:41        1.94
  YS02001641           JUNCTION     0.55     1.95     8.39     0  01:43        1.85
  YS02001644           JUNCTION     0.54     1.92     8.35     0  01:43        1.82
  YS02001647           JUNCTION     0.34     1.76     8.37     0  01:43        1.54
  YS02001649           JUNCTION     0.42     1.96     8.35     0  01:43        1.67
  YS02001652           JUNCTION     0.30     2.01     8.61     0  01:43        1.49
  YS02001655           JUNCTION     0.21     1.83     8.68     0  01:43        1.25
  YS02001658           JUNCTION     0.12     2.02     9.16     0  01:43        0.99
  YS02001661           JUNCTION     0.13     0.75     8.15     0  01:43        0.72
  YS02001664           JUNCTION     0.06     0.26     8.19     0  01:45        0.26
  YS02001745           JUNCTION     0.06     0.50     8.02     0  01:44        0.50
  YS02001748           JUNCTION     0.11     0.94     8.01     0  01:45        0.82
  YS02001751           JUNCTION     0.17     1.33     8.21     0  01:43        1.03
  YS02001754           JUNCTION     0.27     1.52     8.13     0  01:43        1.30
  YS02001757           JUNCTION     0.46     1.80     8.06     0  01:43        1.64
  YS02001759           JUNCTION     0.40     1.76     8.12     0  01:43        1.59
  YS02001762           JUNCTION     0.38     1.75     8.15     0  01:41        1.56
  YS02001765           JUNCTION     0.36     1.80     8.25     0  01:41        1.54
  YS02001767           JUNCTION     0.35     1.83     8.31     0  01:41        1.52
  YS02001770           JUNCTION     0.36     1.88     8.38     0  01:41        1.55
  YS02001774           JUNCTION     0.42     1.95     8.37     0  01:41        1.62
  YS02001779           JUNCTION     0.24     1.68     8.37     0  01:41        1.36
  YS02001783           JUNCTION     0.27     2.27     8.41     0  01:55        1.47
  YS02001784           JUNCTION     0.29     2.29     8.36     0  01:55        1.42
  YS02001786           JUNCTION     0.25     2.23     8.26     0  01:55        1.26
  YS02001788           JUNCTION     0.19     2.28     8.26     0  01:55        1.13
  YS02001790           JUNCTION     0.22     1.96     7.60     0  01:55        1.29
  YS02001791           JUNCTION     0.16     1.62     7.09     0  01:55        1.27
  YS02001793           JUNCTION     0.14     1.94     6.77     0  01:55        1.79
  YS02001882           JUNCTION     0.33     1.81     8.53     0  01:39        1.60
  YS02001884           JUNCTION     0.41     1.87     8.49     0  01:39        1.70
  YS02001887           JUNCTION     0.49     1.88     8.42     0  01:39        1.78
  YS02001890           JUNCTION     0.52     1.81     8.32     0  01:39        1.79
  YS02001895           JUNCTION     0.30     1.61     8.36     0  01:39        1.55
  YS02001898           JUNCTION     0.31     1.67     8.41     0  01:39        1.55
  YS02001901           JUNCTION     0.41     1.70     8.31     0  01:39        1.66
  YS02001904           JUNCTION     0.39     1.64     8.27     0  01:41        1.63
  YS02001907           JUNCTION     0.70     1.96     8.25     0  01:40        1.96
  YS02001910           JUNCTION     0.50     1.97     8.48     0  01:41        1.82
  YS02001915           JUNCTION     0.33     1.91     8.63     0  01:41        1.67
  YS02001918           JUNCTION     0.18     1.81     8.88     0  01:41        1.38
  YS02001920           JUNCTION     0.26     2.14     9.15     0  01:41        1.46
  YS02001923           JUNCTION     0.14     2.03     9.29     0  01:41        1.24
  YS02001926           JUNCTION     0.17     1.90     9.35     0  01:41        1.06
  YS02001929           JUNCTION     0.10     1.78     9.47     0  01:41        0.82
  YS02006553           JUNCTION     0.70     2.15     8.43     0  01:55        1.96
  YS02006556           JUNCTION     0.67     2.34     8.65     0  01:55        1.92
  YS02006558           JUNCTION     0.71     2.46     8.73     0  01:55        1.96
  YS02006561           JUNCTION     0.17     1.72     8.38     0  01:55        1.08
  YS02163301           JUNCTION     0.53     1.92     8.44     0  01:40        1.88
  YS02163601           JUNCTION     0.61     2.03     8.43     0  01:43        1.94
  YS02164001           JUNCTION     0.54     1.95     8.41     0  01:43        1.85
  YSB1154              JUNCTION     0.45     1.98    11.04     0  01:38        1.84
  YSB1171              JUNCTION     0.59     1.95    10.85     0  01:38        1.95
  YSB1174              JUNCTION     0.41     1.82    10.93     0  01:38        1.76
  YSB6556              JUNCTION     0.36     1.80    10.97     0  01:38        1.71
  CC-1                 OUTFALL      0.00     0.00     0.00     0  00:00        0.00
  CC-2                 OUTFALL      0.00     0.00     0.00     0  00:00        0.00
  JK-1                 OUTFALL      0.00     0.00     0.00     0  00:00        0.00
  JK-2                 OUTFALL      0.00     0.00     0.00     0  00:00        0.00
  WSC                  OUTFALL      0.32     0.51     1.18     0  01:48        0.51
  CC-storage           STORAGE      0.65     1.82     7.32     0  02:30        1.81
  JK-storage           STORAGE      0.54     5.80     6.60     0  01:55        5.80
  XR-storage           STORAGE      7.68     8.66     6.66     0  06:00        8.66
  
  
  *******************
  Node Inflow Summary
  *******************
  
  -------------------------------------------------------------------------------------------------
                                  Maximum  Maximum                  Lateral       Total        Flow
                                  Lateral    Total  Time of Max      Inflow      Inflow     Balance
                                   Inflow   Inflow   Occurrence      Volume      Volume       Error
  Node                 Type           LPS      LPS  days hr:min    10^6 ltr    10^6 ltr     Percent
  -------------------------------------------------------------------------------------------------
  HS02004478           JUNCTION      0.00  2227.63     0  01:45           0        8.27      -0.016
  HS02004479           JUNCTION      0.00   442.93     0  01:40           0       0.936       0.072
  HS02004480           JUNCTION      0.00  2174.75     0  01:39           0        6.58       0.027
  HS02004770           JUNCTION    907.07   907.07     0  01:45        2.13         2.4       0.125
  HS02004777           JUNCTION      0.03   833.57     0  01:38    0.000648        1.98       0.269
  HS02004785           JUNCTION      0.15   835.57     0  01:38     0.00324        1.97      -0.009
  HS02004788           JUNCTION    337.85   891.46     0  01:38       0.824         2.8       0.000
  HS02004792           JUNCTION   1091.93  1788.01     0  01:45        2.75        5.54       0.002
  HS02004799           JUNCTION    220.54  1773.94     0  01:39        0.47        5.66       0.048
  HS02004802           JUNCTION      0.00   612.28     0  01:45           0        1.72       0.229
  HS02004807           JUNCTION    273.12   611.67     0  01:45       0.575        1.77       0.233
  HS02004817           JUNCTION      0.60   487.20     0  01:39       0.013        1.26       1.308
  HS02004824           JUNCTION    358.76   720.85     0  01:39        1.01        1.54       0.032
  HS02004830           JUNCTION      0.15   720.56     0  01:39     0.00324       0.827       0.142
  HS02004837           JUNCTION    258.36   949.01     0  01:38       0.683         1.2       0.048
  HS02004842           JUNCTION      0.00   918.88     0  01:39           0         0.9       1.491
  HS02004848           JUNCTION    320.33  1139.22     0  01:39        0.97         1.7      -0.004
  HS02004852           JUNCTION      0.00  1073.04     0  01:39           0        1.54       0.001
  HS02004856           JUNCTION    111.80  1170.83     0  01:40       0.237        1.78       0.064
  HS02004862           JUNCTION    149.09  1250.01     0  01:41       0.412        2.19      -0.018
  HS02004870           JUNCTION    149.09  1370.49     0  01:40       0.315         2.5       0.003
  HS02004876           JUNCTION    148.38  1440.48     0  01:40       0.326        2.83       0.035
  HS02004881           JUNCTION     79.80  1412.54     0  01:40       0.166        2.99      -0.019
  HS02004901           JUNCTION    218.04   462.41     0  01:45       0.478       0.703       0.234
  WS02001211           JUNCTION      7.35   220.20     0  01:39       0.159        4.02       0.828
  WS02001212           JUNCTION      0.00   231.86     0  01:36           0        3.99       0.368
  WS02001213           JUNCTION      0.00   256.85     0  01:42           0        3.98       0.477
  WS02003059           JUNCTION      0.00   284.01     0  01:35           0        3.98       0.816
  WS02003060           JUNCTION     16.53  1486.17     0  01:44       0.357        13.7       0.112
  WS02003066           JUNCTION      0.00  1256.97     0  01:45           0        9.39       0.020
  WS02003067           JUNCTION      0.00  1254.45     0  01:45           0         9.4       0.050
  WS02003069           JUNCTION      0.32  1471.05     0  01:44     0.00691        13.7       0.120
  WS02003072           JUNCTION      0.00  1469.27     0  01:47           0        13.6       0.161
  WS02003073           JUNCTION      1.82  1470.40     0  01:47      0.0393        13.7       0.165
  WS02004138           JUNCTION      0.00   190.00     0  00:29           0        3.88       0.083
  WS02004139           JUNCTION      0.32   190.32     0  00:32     0.00693        3.89       0.692
  WS02004401           JUNCTION      0.00  1255.50     0  01:44           0        9.52       0.123
  WS02004402           JUNCTION      0.00  1255.25     0  01:44           0        9.51       0.123
  WS02004403           JUNCTION      0.00  1255.25     0  01:44           0         9.5       0.118
  WS02004404           JUNCTION      0.16  1255.35     0  01:45      0.0035        9.49       0.097
  WS02004405           JUNCTION      0.04  1256.24     0  01:44    0.000823        9.48       0.142
  WS02004406           JUNCTION      0.00  1255.54     0  01:44           0        9.47       0.239
  WS02004407           JUNCTION      0.00  1255.40     0  01:45           0        9.44       0.023
  WS02004409           JUNCTION      0.00  1254.62     0  01:45           0        9.44       0.046
  WS02004410           JUNCTION      0.00  1254.64     0  01:45           0        9.44       0.065
  WS02004411           JUNCTION      0.00  1254.71     0  01:45           0        9.43       0.075
  WS02004412           JUNCTION      0.00  1254.49     0  01:45           0        9.42       0.095
  WS02004413           JUNCTION      0.00  1254.39     0  01:45           0        9.41       0.165
  WS02006109           JUNCTION      1.23  1251.28     0  01:45      0.0266        9.31       0.106
  WS02006110           JUNCTION      0.00  1121.75     0  01:59           0        9.17       0.087
  WS02006111           JUNCTION      0.00  1122.15     0  01:59           0        9.16       0.016
  WS02006112           JUNCTION    178.19  1255.25     0  01:45       0.393        9.55       0.251
  WS02006113           JUNCTION      0.00  1122.12     0  01:59           0        9.16       0.033
  WS02006115           JUNCTION      0.00  1255.15     0  01:44           0        9.52       0.082
  WS02006116           JUNCTION      0.00  1255.34     0  01:44           0        9.52      -0.015
  WS02006228           JUNCTION      0.00  1250.11     0  01:45           0        9.29       0.070
  WS02006229           JUNCTION      0.00  2228.97     0  01:45           0        11.4       0.077
  WS02006230           JUNCTION     10.28   988.02     0  01:45       0.222        5.25       0.179
  WS02006231           JUNCTION      0.00   549.47     0  00:08           0        4.27      -0.023
  WS02006232           JUNCTION      0.00   549.73     0  00:08           0        4.27       0.153
  WS02006234           JUNCTION      0.00   551.29     0  00:08           0        4.26      -0.089
  WS02006235           JUNCTION      0.00   562.38     0  00:04           0        4.29       0.129
  WS02006238           JUNCTION      0.00   418.83     0  03:35           0        3.83      -0.217
  WS02006239           JUNCTION      0.00   418.82     0  03:35           0         3.8      -0.168
  WS02006240           JUNCTION      0.00   445.60     0  01:29           0        3.79      -0.051
  WS02006242           JUNCTION      0.00   450.09     0  01:29           0        3.78      -0.015
  WS02006243           JUNCTION      0.00   463.96     0  01:29           0        3.42      -0.250
  WS02006245           JUNCTION      0.00   472.14     0  01:29           0        3.43       0.330
  WS02006247           JUNCTION      0.00   471.94     0  01:29           0        3.43       0.037
  WS02006248           JUNCTION      0.00   480.09     0  01:28           0         3.7      -0.007
  WS02006249           JUNCTION      0.00  1333.50     0  01:41           0        6.28       0.121
  WS02006251           JUNCTION      0.08  1419.07     0  01:41     0.00166        6.33      -0.029
  WS02006252           JUNCTION      0.00   400.00     0  00:00           0         3.4      -0.055
  WS02006253           JUNCTION     20.49  1415.85     0  01:41      0.0403        3.08       0.023
  WS02006256           JUNCTION      0.00   300.00     0  00:00           0         1.3      -0.061
  WS02006280           JUNCTION      0.00  2228.03     0  01:45           0        8.25       0.021
  WS02006284           JUNCTION      0.10  2228.06     0  01:45     0.00207        8.25      -0.015
  WS02006287           JUNCTION      0.00  2228.14     0  01:45           0        8.25       0.008
  WSF200               JUNCTION      0.00  1256.53     0  01:45           0        9.39       0.006
  YS02001580           JUNCTION      0.00   158.64     0  01:38           0     0.00464      -2.555
  YS02001583           JUNCTION      0.00   271.02     0  01:38           0      0.0149     -10.481
  YS02001586           JUNCTION    410.70   410.70     0  01:45        1.32        1.33       0.128
  YS02001590           JUNCTION      0.00   317.92     0  01:54           0        1.25      -0.011
  YS02001593           JUNCTION      0.00   318.00     0  01:59           0        1.25      -0.002
  YS02001596           JUNCTION      0.00   317.93     0  01:55           0        1.25      -0.002
  YS02001600           JUNCTION      0.00   318.10     0  01:59           0        1.25      -0.002
  YS02001601           JUNCTION    766.55  1084.04     0  01:45        1.85        3.09       0.026
  YS02001602           JUNCTION      0.00   575.92     0  01:38           0        2.27       0.027
  YS02001605           JUNCTION      0.00   575.69     0  01:38           0        2.19       0.031
  YS02001607           JUNCTION      0.00   575.72     0  01:38           0        2.19       0.111
  YS02001610           JUNCTION      0.00   548.01     0  01:38           0        2.19       0.121
  YS02001613           JUNCTION      0.00   557.78     0  01:38           0        2.02       0.103
  YS02001616           JUNCTION      0.00   565.38     0  01:38           0        2.02       0.041
  YS02001619           JUNCTION    722.93   946.40     0  01:38         2.1        4.11      -0.001
  YS02001622           JUNCTION      0.00   950.70     0  01:38           0        4.11      -0.004
  YS02001625           JUNCTION      0.00   947.06     0  01:38           0        4.11       0.294
  YS02001629           JUNCTION      0.00   949.33     0  01:38           0        3.85      -0.029
  YS02001633           JUNCTION    568.99  1384.96     0  01:40        1.34        5.19       0.070
  YS02001641           JUNCTION      0.00  1386.29     0  01:40           0        5.19       0.056
  YS02001644           JUNCTION    506.33  1810.62     0  01:40        1.16        6.34       0.055
  YS02001647           JUNCTION      0.00  1810.68     0  01:40           0        6.33      -0.005
  YS02001649           JUNCTION      0.00  2126.76     0  01:40           0        7.38       0.000
  YS02001652           JUNCTION      0.00   539.06     0  01:46           0        1.05      -0.255
  YS02001655           JUNCTION      0.15   579.98     0  01:49     0.00332        1.05       0.133
  YS02001658           JUNCTION      0.00   736.56     0  01:43           0        1.05      -0.052
  YS02001661           JUNCTION      0.00   473.12     0  01:45           0        1.05       0.029
  YS02001664           JUNCTION    473.55   473.55     0  01:45        1.05        1.05      -0.003
  YS02001745           JUNCTION    307.47   307.47     0  01:45       0.643       0.643       0.212
  YS02001748           JUNCTION      0.04   507.60     0  01:46    0.000972       0.647      -0.206
  YS02001751           JUNCTION      0.01   492.33     0  01:46    0.000238        0.65       0.179
  YS02001754           JUNCTION      0.26   400.47     0  01:45     0.00562       0.655      -0.302
  YS02001757           JUNCTION      0.00  3156.12     0  01:45           0        10.3       0.020
  YS02001759           JUNCTION    423.24  1047.70     0  01:43       0.886        2.25      -0.012
  YS02001762           JUNCTION      0.00   626.02     0  01:43           0        1.37      -0.025
  YS02001765           JUNCTION      0.00   623.65     0  01:43           0        1.37      -0.014
  YS02001767           JUNCTION      0.54   621.73     0  01:43      0.0116        1.37      -0.009
  YS02001770           JUNCTION    620.63   620.63     0  01:45        1.36        1.42      -0.008
  YS02001774           JUNCTION      0.00   333.55     0  01:41           0       0.103       0.894
  YS02001779           JUNCTION      0.01   338.12     0  01:41    0.000108      0.0396      -0.837
  YS02001783           JUNCTION      0.00  1149.96     0  01:42           0        3.82       0.007
  YS02001784           JUNCTION      1.06  1151.08     0  01:42      0.0229        3.84       0.013
  YS02001786           JUNCTION      0.06  1151.03     0  01:42     0.00122        3.84       0.017
  YS02001788           JUNCTION      0.07  1150.97     0  01:42     0.00153        3.85       0.004
  YS02001790           JUNCTION      0.15  1162.91     0  01:44     0.00335        3.85      -0.005
  YS02001791           JUNCTION      0.00  1272.36     0  01:44           0        3.85      -0.007
  YS02001793           JUNCTION      0.00  1336.82     0  02:11           0        3.85      -0.025
  YS02001882           JUNCTION      0.00    82.94     0  01:39           0      0.0126       5.100
  YS02001884           JUNCTION      0.00   110.41     0  01:39           0      0.0482       5.366
  YS02001887           JUNCTION    446.74   453.16     0  01:39       0.932       0.965       0.467
  YS02001890           JUNCTION      0.00   459.44     0  01:39           0       0.924       0.561
  YS02001895           JUNCTION      0.00   464.47     0  01:39           0       0.919       0.182
  YS02001898           JUNCTION      0.00   469.13     0  01:39           0       0.917      -0.026
  YS02001901           JUNCTION      0.00   477.87     0  01:39           0        0.92       0.372
  YS02001904           JUNCTION      0.00   479.70     0  01:39           0       0.925       0.279
  YS02001907           JUNCTION      0.00  1391.72     0  01:42           0        2.95       0.596
  YS02001910           JUNCTION      0.00   945.35     0  01:42           0        2.03       0.355
  YS02001915           JUNCTION    554.66   945.53     0  01:42        1.29        2.08       0.084
  YS02001918           JUNCTION      0.00   435.56     0  01:42           0       0.814       0.026
  YS02001920           JUNCTION      2.87   435.36     0  01:42       0.062       0.794       0.141
  YS02001923           JUNCTION      0.04   455.81     0  01:40    0.000814       0.715      -0.099
  YS02001926           JUNCTION      0.05   751.76     0  01:41     0.00113       0.695       0.081
  YS02001929           JUNCTION    267.77   464.01     0  01:41       0.679       0.682      -0.038
  YS02006553           JUNCTION      0.00   758.10     0  01:55           0        2.52       0.471
  YS02006556           JUNCTION      0.00   757.68     0  01:55           0        2.53       0.300
  YS02006558           JUNCTION    626.04  1165.67     0  01:40        1.36        3.86       0.102
  YS02006561           JUNCTION      0.00  1166.78     0  01:40           0        3.82      -0.006
  YS02163301           JUNCTION      0.00   926.82     0  02:00           0        3.85       0.042
  YS02163601           JUNCTION      0.11  1385.24     0  01:40     0.00238        5.18       0.098
  YS02164001           JUNCTION      0.00  1385.70     0  01:40           0        5.18       0.039
  YSB1154              JUNCTION    256.44   256.44     0  01:45       0.562       0.563       0.262
  YSB1171              JUNCTION      0.00   465.17     0  01:45           0       0.997       0.633
  YSB1174              JUNCTION    208.62   208.62     0  01:45       0.427       0.428       0.282
  YSB6556              JUNCTION      0.00   256.40     0  01:44           0       0.563       0.183
  CC-1                 OUTFALL       0.00   683.00     0  00:00           0        6.13       0.000
  CC-2                 OUTFALL       0.00   683.00     0  00:00           0        3.52       0.000
  JK-1                 OUTFALL       0.00  1000.00     0  01:40           0         2.5       0.000
  JK-2                 OUTFALL       0.00  1000.00     0  01:40           0        1.77       0.000
  WSC                  OUTFALL       0.00  1469.53     0  01:48           0        13.6       0.000
  CC-storage           STORAGE       0.00  3156.44     0  01:45           0        12.5      -4.098
  JK-storage           STORAGE       0.00  1677.91     0  02:11           0           4     -35.482
  XR-storage           STORAGE     200.00   200.00     0  00:00        4.32        4.92       0.001
  
  
  **********************
  Node Surcharge Summary
  **********************
  
  Surcharging occurs when water rises above the top of the highest conduit.
  ---------------------------------------------------------------------
                                               Max. Height   Min. Depth
                                   Hours       Above Crown    Below Rim
  Node                 Type      Surcharged         Meters       Meters
  ---------------------------------------------------------------------
  HS02004478           JUNCTION        0.41          0.640        0.300
  HS02004479           JUNCTION        0.56          0.890        0.160
  HS02004480           JUNCTION        0.60          0.958        0.142
  HS02004770           JUNCTION        0.51          0.720        0.000
  HS02004777           JUNCTION        0.51          0.780        0.000
  HS02004785           JUNCTION        0.45          0.790        0.000
  HS02004788           JUNCTION        0.44          0.720        0.000
  HS02004792           JUNCTION        0.57          0.900        0.000
  HS02004799           JUNCTION        0.69          1.060        0.000
  HS02004802           JUNCTION        0.60          1.063        0.147
  HS02004807           JUNCTION        0.59          1.214        0.006
  HS02004817           JUNCTION        1.26          1.683        0.057
  HS02004824           JUNCTION        0.43          1.254        0.056
  HS02004830           JUNCTION        0.39          1.284        0.046
  HS02004837           JUNCTION        0.36          1.228        0.112
  HS02004842           JUNCTION        0.50          1.520        0.000
  HS02004848           JUNCTION        0.33          1.323        0.047
  HS02004852           JUNCTION        0.34          1.420        0.000
  HS02004856           JUNCTION        0.32          1.300        0.000
  HS02004862           JUNCTION        0.34          1.300        0.000
  HS02004870           JUNCTION        0.35          1.400        0.000
  HS02004876           JUNCTION        0.41          1.341        0.219
  HS02004881           JUNCTION        0.37          1.450        0.000
  HS02004901           JUNCTION        0.52          0.720        0.000
  WS02004401           JUNCTION        1.67          0.782        0.878
  WS02004402           JUNCTION        1.68          0.745        0.995
  WS02004403           JUNCTION        1.69          0.700        1.330
  WS02004404           JUNCTION        1.74          0.711        2.069
  WS02004405           JUNCTION        1.73          0.642        2.158
  WS02004406           JUNCTION        1.72          0.500        1.950
  WS02004409           JUNCTION        1.01          0.334        2.026
  WS02004410           JUNCTION        0.89          0.247        2.293
  WS02004411           JUNCTION        0.83          0.167        2.363
  WS02004412           JUNCTION        0.73          0.079        2.231
  WS02004413           JUNCTION        1.46          0.129        2.071
  WS02006109           JUNCTION        2.69          1.820        0.000
  WS02006110           JUNCTION        2.11          1.442        0.408
  WS02006111           JUNCTION        1.41          0.817        1.053
  WS02006112           JUNCTION        2.34          1.238        0.442
  WS02006113           JUNCTION        1.45          0.947        0.983
  WS02006115           JUNCTION        1.59          0.838        1.412
  WS02006116           JUNCTION        1.61          0.792        1.498
  WS02006228           JUNCTION        2.67          2.200        0.000
  WS02006229           JUNCTION        0.87          1.040        0.030
  WS02006230           JUNCTION        1.87          1.570        0.000
  WS02006231           JUNCTION        2.07          1.479        0.051
  WS02006232           JUNCTION        2.72          1.480        0.000
  WS02006234           JUNCTION        2.48          1.240        0.000
  WS02006235           JUNCTION        2.60          1.290        0.000
  WS02006238           JUNCTION        2.65          1.331        0.099
  WS02006239           JUNCTION        2.57          1.290        0.000
  WS02006240           JUNCTION        2.54          1.321        0.069
  WS02006242           JUNCTION        2.65          0.820        0.000
  WS02006243           JUNCTION        2.50          0.703        0.067
  WS02006245           JUNCTION        2.48          0.608        0.242
  WS02006247           JUNCTION        2.49          0.643        0.117
  WS02006248           JUNCTION        2.44          0.380        0.000
  WS02006249           JUNCTION        2.47          0.390        0.000
  WS02006251           JUNCTION        2.13          1.180        0.000
  WS02006252           JUNCTION        2.81          1.100        0.000
  WS02006253           JUNCTION        2.17          2.480        0.000
  WS02006256           JUNCTION        5.86          2.050        0.000
  WS02006280           JUNCTION        0.72          0.691        0.089
  WS02006284           JUNCTION        0.62          0.656        0.144
  WS02006287           JUNCTION        0.52          0.718        0.172
  YS02001580           JUNCTION        0.50          0.450        0.000
  YS02001583           JUNCTION        0.52          0.500        0.000
  YS02001586           JUNCTION        0.69          0.510        0.000
  YS02001590           JUNCTION        0.79          0.750        0.000
  YS02001593           JUNCTION        0.79          0.840        0.000
  YS02001596           JUNCTION        0.94          1.044        0.026
  YS02001600           JUNCTION        1.14          1.190        0.000
  YS02001601           JUNCTION        1.53          1.440        0.000
  YS02001602           JUNCTION        1.40          1.270        0.000
  YS02001605           JUNCTION        1.36          1.180        0.000
  YS02001607           JUNCTION        0.80          0.645        0.035
  YS02001610           JUNCTION        0.86          0.680        0.000
  YS02001613           JUNCTION        0.80          0.665        0.035
  YS02001616           JUNCTION        0.72          0.610        0.000
  YS02001619           JUNCTION        0.69          0.610        0.000
  YS02001622           JUNCTION        0.69          0.620        0.000
  YS02001625           JUNCTION        1.03          0.780        0.000
  YS02001629           JUNCTION        0.55          0.470        0.000
  YS02001633           JUNCTION        1.09          0.989        0.071
  YS02001641           JUNCTION        1.07          0.952        0.148
  YS02001644           JUNCTION        1.05          0.920        0.000
  YS02001647           JUNCTION        0.34          0.755        0.145
  YS02001649           JUNCTION        1.00          0.963        0.087
  YS02001652           JUNCTION        0.21          0.980        0.150
  YS02001655           JUNCTION        0.10          0.828        0.372
  YS02001658           JUNCTION        0.01          1.020        0.280
  YS02001751           JUNCTION        0.04          0.329        0.871
  YS02001754           JUNCTION        0.11          0.471        0.679
  YS02001757           JUNCTION        1.12          0.797        0.413
  YS02001759           JUNCTION        0.80          0.760        0.450
  YS02001762           JUNCTION        0.70          0.751        0.399
  YS02001765           JUNCTION        0.39          0.802        0.298
  YS02001767           JUNCTION        0.24          0.825        0.205
  YS02001770           JUNCTION        0.21          0.852        0.068
  YS02001774           JUNCTION        0.60          0.951        0.099
  YS02001779           JUNCTION        0.14          0.680        0.000
  YS02001783           JUNCTION        0.56          1.469        0.131
  YS02001784           JUNCTION        0.54          1.490        0.000
  YS02001786           JUNCTION        0.51          1.427        0.003
  YS02001788           JUNCTION        0.25          1.480        0.000
  YS02001790           JUNCTION        0.26          1.157        0.000
  YS02001791           JUNCTION        0.26          0.821        1.099
  YS02001793           JUNCTION        0.27          0.939        1.661
  YS02001882           JUNCTION        0.52          0.810        0.020
  YS02001884           JUNCTION        0.53          0.814        0.056
  YS02001887           JUNCTION        0.55          0.832        0.118
  YS02001890           JUNCTION        0.57          0.760        0.000
  YS02001895           JUNCTION        0.51          0.614        0.136
  YS02001898           JUNCTION        0.50          0.642        0.098
  YS02001901           JUNCTION        0.54          0.700        0.170
  YS02001904           JUNCTION        0.54          0.636        0.214
  YS02001907           JUNCTION        0.72          0.950        0.000
  YS02001910           JUNCTION        0.58          0.972        0.128
  YS02001915           JUNCTION        0.52          0.914        0.086
  YS02001918           JUNCTION        0.40          0.810        0.000
  YS02001920           JUNCTION        0.42          1.140        0.000
  YS02001923           JUNCTION        0.01          0.820        0.000
  YS02001926           JUNCTION        0.01          0.900        0.000
  YS02001929           JUNCTION        0.01          0.780        0.000
  YS02006553           JUNCTION        0.73          1.146        0.044
  YS02006556           JUNCTION        0.65          1.300        0.050
  YS02006558           JUNCTION        0.64          1.360        0.040
  YS02006561           JUNCTION        0.44          0.919        0.231
  YS02163301           JUNCTION        1.06          0.919        0.111
  YS02163601           JUNCTION        1.14          1.033        0.047
  YS02164001           JUNCTION        1.07          0.952        0.148
  YSB1154              JUNCTION        0.84          1.282        0.118
  YSB1171              JUNCTION        0.85          1.100        0.000
  YSB1174              JUNCTION        0.73          1.123        0.127
  YSB6556              JUNCTION        0.66          1.100        0.000
  
  
  *********************
  Node Flooding Summary
  *********************
  
  Flooding refers to all water that overflows a node, whether it ponds or not.
  --------------------------------------------------------------------------
                                                             Total   Maximum
                                 Maximum   Time of Max       Flood    Ponded
                        Hours       Rate    Occurrence      Volume     Depth
  Node                 Flooded       LPS   days hr:min    10^6 ltr    Meters
  --------------------------------------------------------------------------
  HS02004770              0.25    369.97      0  01:40       0.197     0.000
  HS02004777              0.01     40.52      0  01:38       0.000     0.000
  HS02004785              0.01    444.58      0  01:38       0.001     0.000
  HS02004788              0.01    407.13      0  01:38       0.003     0.000
  HS02004792              0.28    634.26      0  01:45       0.348     0.000
  HS02004799              0.02     46.65      0  01:41       0.001     0.000
  HS02004842              0.01     43.66      0  01:41       0.000     0.000
  HS02004852              0.01    123.83      0  01:41       0.000     0.000
  HS02004856              0.01    325.89      0  01:41       0.001     0.000
  HS02004862              0.01    359.71      0  01:41       0.001     0.000
  HS02004870              0.01    281.93      0  01:40       0.000     0.000
  HS02004881              0.01    352.63      0  01:40       0.001     0.000
  HS02004901              0.37    462.41      0  01:45       0.435     0.000
  WS02006109              0.36    174.22      0  01:45       0.132     0.000
  WS02006228              0.01      3.79      0  01:38       0.000     0.000
  WS02006230              0.63    535.45      0  01:45       0.784     0.000
  WS02006232              0.17      0.77      0  02:06       0.000     0.000
  WS02006234              0.72    128.48      0  02:03       0.217     0.000
  WS02006235              0.01     14.25      0  02:20       0.000     0.000
  WS02006239              0.01     40.39      0  01:29       0.000     0.000
  WS02006242              0.81    137.22      0  02:14       0.354     0.000
  WS02006248              1.31    345.36      0  01:37       1.236     0.000
  WS02006249              1.90   1270.07      0  01:41       3.536     0.000
  WS02006251              0.01    112.64      0  02:20       0.000     0.000
  WS02006252              0.33    319.63      0  02:20       0.151     0.000
  WS02006253              0.01     91.13      0  01:40       0.000     0.000
  WS02006256              1.18    293.19      0  00:00       0.619     0.000
  YS02001580              0.01     99.89      0  01:38       0.001     0.000
  YS02001583              0.01    200.99      0  01:38       0.000     0.000
  YS02001586              0.35    113.70      0  01:38       0.069     0.000
  YS02001590              0.01     56.44      0  01:37       0.000     0.000
  YS02001593              0.01     23.81      0  01:37       0.000     0.000
  YS02001600              0.01     10.73      0  01:37       0.000     0.000
  YS02001601              0.61    686.02      0  01:45       0.825     0.000
  YS02001602              0.37     62.01      0  01:56       0.071     0.000
  YS02001605              0.01      2.04      0  01:38       0.000     0.000
  YS02001610              0.29    231.00      0  01:46       0.173     0.000
  YS02001616              0.01     28.53      0  01:38       0.000     0.000
  YS02001619              0.01     98.83      0  01:38       0.000     0.000
  YS02001622              0.01    206.86      0  01:38       0.000     0.000
  YS02001625              0.24    627.63      0  01:45       0.252     0.000
  YS02001629              0.02    327.58      0  01:38       0.002     0.000
  YS02001644              0.01     32.40      0  01:43       0.000     0.000
  YS02001779              0.01    271.52      0  01:41       0.001     0.000
  YS02001784              0.01     14.12      0  01:55       0.000     0.000
  YS02001788              0.01    155.22      0  01:55       0.000     0.000
  YS02001790              0.01     42.79      0  01:55       0.000     0.000
  YS02001890              0.01     57.36      0  01:39       0.000     0.000
  YS02001907              0.33    841.81      0  01:42       0.426     0.000
  YS02001918              0.01     63.40      0  01:41       0.001     0.000
  YS02001920              0.01     51.06      0  01:41       0.000     0.000
  YS02001923              0.01    148.56      0  01:41       0.000     0.000
  YS02001926              0.01    533.34      0  01:41       0.001     0.000
  YS02001929              0.01    323.26      0  01:41       0.001     0.000
  YSB1171                 0.15    223.84      0  01:45       0.062     0.000
  YSB6556                 0.01     13.98      0  01:38       0.000     0.000
  JK-storage              0.25   1063.24      0  01:55       0.629     0.000
  
  
  **********************
  Storage Volume Summary
  **********************
  
  --------------------------------------------------------------------------------------------------
                         Average     Avg  Evap Exfil       Maximum     Max    Time of Max    Maximum
                          Volume    Pcnt  Pcnt  Pcnt        Volume    Pcnt     Occurrence    Outflow
  Storage Unit           1000 m3    Full  Loss  Loss       1000 m3    Full    days hr:min        LPS
  --------------------------------------------------------------------------------------------------
  CC-storage               1.824      28     0     0         5.063      79       0  02:30    1783.54
  JK-storage               0.027       9     0     0         0.291     100       0  01:55    2300.00
  XR-storage               0.921      64     0     0         1.039      72       0  06:00     190.00
  
  
  ***********************
  Outfall Loading Summary
  ***********************
  
  -----------------------------------------------------------
                         Flow       Avg       Max       Total
                         Freq      Flow      Flow      Volume
  Outfall Node           Pcnt       LPS       LPS    10^6 ltr
  -----------------------------------------------------------
  CC-1                  69.66    541.29    683.00       6.131
  CC-2                  41.52    587.23    683.00       3.521
  JK-1                  79.32    185.37   1000.00       2.498
  JK-2                  45.45    239.77   1000.00       1.772
  WSC                   99.95    693.39   1469.53      13.637
  -----------------------------------------------------------
  System                67.18   2247.06   4489.33      27.559
  
  
  ********************
  Link Flow Summary
  ********************
  
  -----------------------------------------------------------------------------
                                 Maximum  Time of Max   Maximum    Max/    Max/
                                  |Flow|   Occurrence   |Veloc|    Full    Full
  Link                 Type          LPS  days hr:min     m/sec    Flow   Depth
  -----------------------------------------------------------------------------
  1                    CONDUIT   1469.53     0  01:48      3.68    0.51    0.51
  HS02004478WS02006287 CONDUIT   2228.14     0  01:45      2.57    0.62    1.00
  HS02004479HS02004480 CONDUIT    444.89     0  01:40      0.64    0.43    1.00
  HS02004480HS02004478 CONDUIT   2171.06     0  01:39      3.10    9.14    1.00
  HS02004770HS02004777 CONDUIT    833.54     0  01:38      1.19    1.52    1.00
  HS02004777HS02004785 CONDUIT    835.42     0  01:38      1.33    1.03    1.00
  HS02004785HS02004788 CONDUIT    652.03     0  01:38      1.34    4.92    1.00
  HS02004788HS02004792 CONDUIT    816.42     0  02:00      1.44    0.54    1.00
  HS02004792HS02004799 CONDUIT   1586.95     0  01:39      2.27    0.97    1.00
  HS02004799HS02004480 CONDUIT   1772.59     0  01:39      2.53    2.24    1.00
  HS02004802HS02004478 CONDUIT    612.40     0  01:45      0.87    0.54    1.00
  HS02004807HS02004802 CONDUIT    612.28     0  01:45      0.87    1.17    1.00
  HS02004817HS02004807 CONDUIT    486.60     0  01:39      0.70    0.29    1.00
  HS02004817HS02004824 CONDUIT    486.89     0  01:39      0.70    0.22    1.00
  HS02004824HS02004830 CONDUIT    720.41     0  01:39      1.03    0.94    1.00
  HS02004830HS02004837 CONDUIT    738.08     0  01:38      1.14    0.74    1.00
  HS02004837HS02004842 CONDUIT    918.88     0  01:39      1.31    0.55    1.00
  HS02004842HS02004848 CONDUIT    917.80     0  01:39      1.47    0.53    1.00
  HS02004848HS02004852 CONDUIT   1073.04     0  01:39      1.69    1.21    1.00
  HS02004852HS02004856 CONDUIT   1066.56     0  01:40      1.52    1.22    1.00
  HS02004856HS02004862 CONDUIT   1124.68     0  01:41      1.73    1.12    1.00
  HS02004862HS02004870 CONDUIT   1231.01     0  01:40      1.96    1.33    1.00
  HS02004870HS02004876 CONDUIT   1308.47     0  01:40      2.00    0.87    1.00
  HS02004876HS02004881 CONDUIT   1335.53     0  01:40      2.63   14.20    1.00
  HS02004881HS02006253 CONDUIT   1395.84     0  01:41      1.99    0.27    1.00
  HS02004901HS02004770 CONDUIT    265.65     0  01:53      0.38    1.00    1.00
  WS02001211WS02001212 CONDUIT    211.71     0  01:42      0.54    0.16    0.69
  WS02001212WS02001213 CONDUIT    256.85     0  01:42      1.04    0.40    0.55
  WS02001213WS02003059 CONDUIT    228.15     0  01:43      0.47    0.38    0.89
  WS02003059WS02003060 CONDUIT    223.19     0  03:18      0.65    0.15    0.80
  WS02003060WS02003069 CONDUIT   1470.73     0  01:44      2.08    0.58    0.60
  WS02003066WSF200     CONDUIT   1256.53     0  01:45      3.42    0.21    0.38
  WS02003067WS02003066 CONDUIT   1256.97     0  01:45      1.97    0.40    0.55
  WS02003069WS02003072 CONDUIT   1469.27     0  01:47      1.88    0.71    0.65
  WS02003072WS02003073 CONDUIT   1468.58     0  01:47      2.03    3.17    0.61
  WS02004138WS02004139 CONDUIT    190.00     0  00:32      2.17    0.04    0.41
  WS02004139WS02001211 CONDUIT    212.85     0  01:39      0.54    0.27    0.60
  WS02004401WS02004402 CONDUIT   1255.25     0  01:44      1.60    1.51    1.00
  WS02004402WS02004403 CONDUIT   1255.25     0  01:44      1.60    1.80    1.00
  WS02004403WS02004404 CONDUIT   1255.19     0  01:45      1.60    0.91    1.00
  WS02004404WS02004405 CONDUIT   1256.20     0  01:44      1.60   12.31    1.00
  WS02004405WS02004406 CONDUIT   1255.54     0  01:44      1.60    2.48    1.00
  WS02004406WS02004407 CONDUIT   1255.40     0  01:45      1.84    0.56    0.92
  WS02004407WS02004409 CONDUIT   1254.62     0  01:45      2.06    0.44    0.92
  WS02004409WS02004410 CONDUIT   1254.64     0  01:45      1.60    1.62    1.00
  WS02004410WS02004411 CONDUIT   1254.71     0  01:45      1.60    1.71    1.00
  WS02004411WS02004412 CONDUIT   1254.49     0  01:45      1.60    1.78    1.00
  WS02004412WS02004413 CONDUIT   1254.39     0  01:45      1.60    0.84    1.00
  WS02004413WS02003067 CONDUIT   1254.45     0  01:45      1.96    0.54    0.76
  WS02006109WS02006110 CONDUIT   1121.75     0  01:59      2.23    2.16    1.00
  WS02006110WS02006113 CONDUIT   1122.12     0  01:59      2.23    1.02    1.00
  WS02006111WS02006112 CONDUIT   1122.04     0  01:59      2.39    0.53    1.00
  WS02006112WS02006115 CONDUIT   1255.15     0  01:44      1.60    0.74    1.00
  WS02006113WS02006111 CONDUIT   1122.15     0  01:59      2.79    1.35    1.00
  WS02006115WS02006116 CONDUIT   1255.34     0  01:44      1.60    1.61    1.00
  WS02006116WS02004401 CONDUIT   1255.50     0  01:44      1.60    1.73    1.00
  WS02006228WS02006109 CONDUIT   1250.05     0  01:45      2.49    5.46    1.00
  WS02006229WS02006228 CONDUIT   1250.11     0  01:45      2.49    4.14    1.00
  WS02006230WS02006229 CONDUIT    977.74     0  01:45      2.54   21.76    1.00
  WS02006231WS02006230 CONDUIT    542.77     0  00:09      1.60    8.23    1.00
  WS02006232WS02006231 CONDUIT    549.47     0  00:08      1.45    1.15    1.00
  WS02006234WS02006232 CONDUIT    549.73     0  00:08      1.43    1.11    1.00
  WS02006235WS02006234 CONDUIT    551.29     0  00:08      1.52    5.82    1.00
  WS02006238WS02006235 CONDUIT    446.43     0  00:10      1.45    1.00    1.00
  WS02006239WS02006238 CONDUIT    418.83     0  03:35      1.09    1.34    1.00
  WS02006240WS02006239 CONDUIT    418.82     0  03:35      1.21    1.32    1.00
  WS02006242WS02006240 CONDUIT    445.60     0  01:29      1.17    1.77    1.00
  WS02006243WS02006242 CONDUIT    450.09     0  01:29      1.32    0.96    1.00
  WS02006245WS02006243 CONDUIT    463.96     0  01:29      1.36    1.37    1.00
  WS02006247WS02006245 CONDUIT    472.14     0  01:29      1.36    3.74    1.00
  WS02006248WS02006247 CONDUIT    471.94     0  01:29      1.40    1.03    1.00
  WS02006249WS02006248 CONDUIT    480.09     0  01:28      1.37    2.63    1.00
  WS02006251WS02006249 CONDUIT   1333.50     0  01:41      3.47    3.85    1.00
  WS02006252WS02006251 CONDUIT    409.04     0  03:00      4.81    1.50    1.00
  WS02006253WS02006251 CONDUIT   1418.99     0  01:41      3.69    4.25    1.00
  WS02006256WS02006235 CONDUIT    288.93     0  00:00      4.23    3.06    1.00
  WS02006280WS02006229 CONDUIT   2228.97     0  01:45      4.01    0.48    1.00
  WS02006284WS02006280 CONDUIT   2228.03     0  01:45      3.02    0.93    1.00
  WS02006287WS02006284 CONDUIT   2227.96     0  01:45      2.84    1.03    1.00
  WSF200WS02003060     CONDUIT   1258.99     0  01:45      2.68    0.28    0.50
  YS02001580YS02001583 CONDUIT    158.64     0  01:38      0.88    0.61    1.00
  YS02001583YS02001586 CONDUIT    191.50     0  01:38      0.90    0.29    1.00
  YS02001586YS02001590 CONDUIT    317.92     0  01:54      1.29    0.56    1.00
  YS02001590YS02001593 CONDUIT    318.00     0  01:59      1.12    2.00    1.00
  YS02001593YS02001596 CONDUIT    317.93     0  01:55      1.67    0.50    1.00
  YS02001596YS02001600 CONDUIT    318.10     0  01:59      1.19    0.62    1.00
  YS02001600YS02001601 CONDUIT    317.87     0  01:54      1.12    0.55    1.00
  YS02001601YS02001602 CONDUIT    575.92     0  01:38      2.04    2.08    1.00
  YS02001602YS02001605 CONDUIT    575.69     0  01:38      2.04   12.18    1.00
  YS02001605YS02001607 CONDUIT    575.72     0  01:38      2.04    3.16    1.00
  YS02001607YS02001610 CONDUIT    548.01     0  01:38      0.71    0.52    1.00
  YS02001610YS02001613 CONDUIT    557.78     0  01:38      0.71    0.64    1.00
  YS02001613YS02001616 CONDUIT    565.38     0  01:38      0.72    0.48    1.00
  YS02001616YS02001619 CONDUIT    485.13     0  02:13      0.67    0.84    1.00
  YS02001619YS02001622 CONDUIT    950.70     0  01:38      1.28    1.40    1.00
  YS02001622YS02001625 CONDUIT    947.06     0  01:38      1.21    0.51    1.00
  YS02001625YS02001629 CONDUIT    949.33     0  01:38      1.21    0.45    1.00
  YS02001629YS02163301 CONDUIT    926.82     0  02:00      1.18    1.14    1.00
  YS02001633YS02163601 CONDUIT   1385.13     0  01:40      1.76    1.45    1.00
  YS02001641YS02001644 CONDUIT   1385.71     0  01:40      1.76    4.48    1.00
  YS02001644YS02001647 CONDUIT   1810.68     0  01:40      2.34    1.06    1.00
  YS02001647YS02001649 CONDUIT   1802.34     0  01:40      2.35    0.95    1.00
  YS02001649YS02001757 CONDUIT   2123.96     0  01:40      2.70    1.29    1.00
  YS02001652YS02001649 CONDUIT    539.61     0  01:46      0.92    0.27    1.00
  YS02001655YS02001652 CONDUIT    539.06     0  01:46      1.51    0.26    1.00
  YS02001658YS02001655 CONDUIT    579.82     0  01:49      2.04    0.25    1.00
  YS02001661YS02001658 CONDUIT    736.56     0  01:43      2.34    0.29    0.82
  YS02001664YS02001661 CONDUIT    473.12     0  01:45      2.21    0.15    0.50
  YS02001745YS02001748 CONDUIT    507.56     0  01:46      2.19    0.20    0.61
  YS02001748YS02001751 CONDUIT    492.32     0  01:46      1.81    0.25    0.97
  YS02001751YS02001754 CONDUIT    400.21     0  01:45      1.52    0.19    1.00
  YS02001754YS02001757 CONDUIT    401.58     0  01:45      0.51    0.16    1.00
  YS02001757CaochengTiaoxuchi CONDUIT   3156.44     0  01:45      6.94    1.37    1.00
  YS02001759YS02001757 CONDUIT   1049.45     0  01:43      1.34    0.75    1.00
  YS02001762YS02001759 CONDUIT    628.38     0  01:43      0.80    0.72    1.00
  YS02001765YS02001762 CONDUIT    626.02     0  01:43      0.80    0.59    1.00
  YS02001767YS02001765 CONDUIT    623.65     0  01:43      0.79    0.78    1.00
  YS02001770YS02001767 CONDUIT    621.19     0  01:43      0.82    2.46    1.00
  YS02001774YS02001770 CONDUIT    333.55     0  01:41      0.42    0.21    1.00
  YS02001779YS02001774 CONDUIT    338.11     0  01:41      0.44    0.17    1.00
  YS02001783YS02001784 CONDUIT   1150.02     0  01:42      2.29    1.59    1.00
  YS02001784YS02001785 CONDUIT   1150.98     0  01:42      2.29    2.68    1.00
  YS02001786YS02001788 CONDUIT   1150.90     0  01:42      2.46    2.22    1.00
  YS02001788YS02001790 CONDUIT   1162.75     0  01:44      2.72    0.86    1.00
  YS02001790YS02001791 CONDUIT   1272.36     0  01:44      3.42    1.38    1.00
  YS02001791YS02001793 CONDUIT   1336.82     0  02:11      6.75    0.57    1.00
  YS02001793JiankangQianchi CONDUIT   1677.91     0  02:11     24.89    0.13    1.00
  YS02001882YS02001884 CONDUIT     82.94     0  01:39      0.15    0.10    1.00
  YS02001884YS02001887 CONDUIT    110.41     0  01:39      0.14    0.15    1.00
  YS02001887YS02001890 CONDUIT    459.44     0  01:39      0.58    0.79    1.00
  YS02001890YS02001895 CONDUIT    464.47     0  01:39      0.59    0.22    1.00
  YS02001895YS02001898 CONDUIT    469.13     0  01:39      0.60    0.81    1.00
  YS02001898YS02001901 CONDUIT    477.87     0  01:39      0.61    0.31    1.00
  YS02001901YS02001904 CONDUIT    479.70     0  01:39      0.61    0.74    1.00
  YS02001904YS02001907 CONDUIT    481.89     0  01:39      0.61    0.17    1.00
  YS02001907YS02006553 CONDUIT    758.10     0  01:55      0.84    0.89    1.00
  YS02001910YS02001907 CONDUIT    945.59     0  01:42      1.20    0.53    1.00
  YS02001915YS02001910 CONDUIT    945.35     0  01:42      1.20    0.47    1.00
  YS02001918YS02001915 CONDUIT    436.02     0  01:42      0.58    0.24    1.00
  YS02001920YS02001918 CONDUIT    435.56     0  01:42      0.65    0.42    1.00
  YS02001923YS02001920 CONDUIT    432.49     0  01:42      0.76    0.19    1.00
  YS02001926YS02001923 CONDUIT    398.58     0  01:41      0.96    0.57    1.00
  YS02001929YS02001926 CONDUIT    373.00     0  01:41      1.13    0.18    1.00
  YS02006553YS02006556 CONDUIT    757.68     0  01:55      0.96    0.65    1.00
  YS02006556YS02006558 CONDUIT    758.94     0  01:55      0.97    0.60    1.00
  YS02006558YS02006561 CONDUIT   1166.78     0  01:40      4.13    2.58    1.00
  YS02006561YS02001783 CONDUIT   1149.96     0  01:42      2.29    0.60    1.00
  YS02163301YS02001633 CONDUIT    927.36     0  02:00      1.18    0.87    1.00
  YS02163601YS02164001 CONDUIT   1385.70     0  01:40      1.76    1.23    1.00
  YS02164001YS02001641 CONDUIT   1386.29     0  01:40      1.77    1.89    1.00
  YSB1154YSB6556       CONDUIT    256.40     0  01:44      0.67    0.46    1.00
  YSB1171HS02004479    CONDUIT    442.93     0  01:40      0.88    0.30    1.00
  YSB1174YSB1171       CONDUIT    208.81     0  01:44      0.54    0.32    1.00
  YSB6556YSB1171       CONDUIT    256.57     0  01:45      0.67    0.26    1.00
  CC-R1                PUMP       683.00     0  00:00              1.00
  CC-R2                PUMP       683.00     0  00:00              1.00
  CC-S1                PUMP       200.00     0  00:00              1.00
  CC-S2                PUMP       200.00     0  00:00              1.00
  JK-R1                PUMP      1000.00     0  01:40              1.00
  JK-R2                PUMP      1000.00     0  01:40              1.00
  JK-S                 PUMP       300.00     0  00:00              1.00
  XR-1                 PUMP        95.00     0  00:10              1.00
  XR-2                 PUMP        95.00     0  00:29              1.00
  XR-3                 PUMP         0.00     0  00:00              0.00
  XR-4                 PUMP         0.00     0  00:00              0.00
  
  
  ***************************
  Flow Classification Summary
  ***************************
  
  -------------------------------------------------------------------------------------
                      Adjusted    ---------- Fraction of Time in Flow Class ---------- 
                       /Actual         Up    Down  Sub   Sup   Up    Down  Norm  Inlet 
  Conduit               Length    Dry  Dry   Dry   Crit  Crit  Crit  Crit  Ltd   Ctrl  
  -------------------------------------------------------------------------------------
  1                       1.00   0.00  0.00  0.00  0.00  1.00  0.00  0.00  0.58  0.00
  HS02004478WS02006287    1.00   0.17  0.00  0.00  0.52  0.32  0.00  0.00  0.46  0.00
  HS02004479HS02004480    1.00   0.03  0.00  0.00  0.97  0.00  0.00  0.00  0.15  0.00
  HS02004480HS02004478    1.00   0.15  0.00  0.00  0.46  0.00  0.00  0.39  0.00  0.00
  HS02004770HS02004777    1.00   0.00  0.15  0.00  0.85  0.00  0.00  0.00  0.03  0.00
  HS02004777HS02004785    1.00   0.00  0.00  0.00  1.00  0.00  0.00  0.00  0.15  0.00
  HS02004785HS02004788    1.00   0.00  0.00  0.00  1.00  0.00  0.00  0.00  0.00  0.00
  HS02004788HS02004792    1.00   0.00  0.00  0.00  0.99  0.01  0.00  0.00  0.88  0.00
  HS02004792HS02004799    1.00   0.00  0.00  0.00  0.99  0.01  0.00  0.00  0.81  0.00
  HS02004799HS02004480    1.00   0.00  0.02  0.00  0.83  0.00  0.14  0.00  0.00  0.00
  HS02004802HS02004478    1.00   0.15  0.00  0.00  0.84  0.00  0.00  0.00  0.03  0.00
  HS02004807HS02004802    1.00   0.15  0.00  0.00  0.84  0.00  0.00  0.02  0.00  0.00
  HS02004817HS02004807    1.00   0.00  0.15  0.00  0.85  0.00  0.00  0.00  0.02  0.00
  HS02004817HS02004824    1.00   0.00  0.00  0.00  1.00  0.00  0.00  0.00  0.74  0.00
  HS02004824HS02004830    1.00   0.00  0.00  0.00  1.00  0.00  0.00  0.00  0.01  0.00
  HS02004830HS02004837    1.00   0.00  0.00  0.00  1.00  0.00  0.00  0.00  0.84  0.00
  HS02004837HS02004842    1.00   0.00  0.00  0.00  0.99  0.01  0.00  0.00  0.14  0.00
  HS02004842HS02004848    1.00   0.00  0.15  0.00  0.85  0.00  0.00  0.00  0.42  0.00
  HS02004848HS02004852    1.00   0.15  0.00  0.00  0.85  0.00  0.00  0.00  0.63  0.00
  HS02004852HS02004856    1.00   0.15  0.01  0.00  0.84  0.00  0.00  0.00  0.55  0.00
  HS02004856HS02004862    1.00   0.00  0.17  0.00  0.83  0.00  0.00  0.00  0.67  0.00
  HS02004862HS02004870    1.00   0.00  0.00  0.00  1.00  0.00  0.00  0.00  0.04  0.00
  HS02004870HS02004876    1.00   0.00  0.00  0.00  0.99  0.00  0.00  0.00  0.82  0.00
  HS02004876HS02004881    1.00   0.01  0.00  0.00  0.73  0.25  0.00  0.00  0.00  0.00
  HS02004881HS02006253    1.00   0.00  0.06  0.00  0.64  0.01  0.00  0.29  0.41  0.00
  HS02004901HS02004770    1.00   0.15  0.00  0.00  0.85  0.00  0.00  0.00  0.00  0.00
  WS02001211WS02001212    1.00   0.00  0.02  0.00  0.98  0.00  0.00  0.00  0.00  0.00
  WS02001212WS02001213    1.00   0.02  0.00  0.00  0.63  0.00  0.36  0.00  0.00  0.00
  WS02001213WS02003059    1.00   0.00  0.00  0.00  0.99  0.00  0.00  0.00  0.00  0.00
  WS02003059WS02003060    1.00   0.00  0.00  0.00  1.00  0.00  0.00  0.00  0.04  0.00
  WS02003060WS02003069    1.00   0.00  0.00  0.00  0.95  0.05  0.00  0.00  0.33  0.00
  WS02003066WSF200        1.00   0.03  0.00  0.00  0.00  0.97  0.00  0.00  0.53  0.00
  WS02003067WS02003066    1.00   0.03  0.00  0.00  0.97  0.00  0.00  0.00  0.00  0.00
  WS02003069WS02003072    1.00   0.00  0.00  0.00  1.00  0.00  0.00  0.00  0.40  0.00
  WS02003072WS02003073    1.00   0.00  0.00  0.00  0.00  0.00  0.00  1.00  0.00  0.00
  WS02004138WS02004139    1.00   0.01  0.00  0.00  0.98  0.00  0.00  0.00  0.97  0.00
  WS02004139WS02001211    1.00   0.00  0.01  0.00  0.99  0.00  0.00  0.00  0.01  0.00
  WS02004401WS02004402    1.00   0.01  0.00  0.00  0.98  0.00  0.00  0.00  0.00  0.00
  WS02004402WS02004403    1.00   0.01  0.00  0.00  0.98  0.00  0.00  0.00  0.00  0.00
  WS02004403WS02004404    1.00   0.00  0.02  0.00  0.98  0.00  0.00  0.00  0.00  0.00
  WS02004404WS02004405    1.00   0.00  0.00  0.00  1.00  0.00  0.00  0.00  0.00  0.00
  WS02004405WS02004406    1.00   0.00  0.00  0.00  1.00  0.00  0.00  0.00  0.00  0.00
  WS02004406WS02004407    1.00   0.00  0.02  0.00  0.98  0.00  0.00  0.00  0.00  0.00
  WS02004407WS02004409    1.00   0.02  0.00  0.00  0.97  0.01  0.00  0.00  0.78  0.00
  WS02004409WS02004410    1.00   0.02  0.00  0.00  0.98  0.00  0.00  0.00  0.00  0.00
  WS02004410WS02004411    1.00   0.02  0.00  0.00  0.98  0.00  0.00  0.00  0.00  0.00
  WS02004411WS02004412    1.00   0.02  0.00  0.00  0.98  0.00  0.00  0.00  0.00  0.00
  WS02004412WS02004413    1.00   0.02  0.00  0.00  0.98  0.00  0.00  0.00  0.00  0.00
  WS02004413WS02003067    1.00   0.02  0.01  0.00  0.00  0.00  0.97  0.00  0.00  0.00
  WS02006109WS02006110    1.00   0.00  0.01  0.00  0.99  0.00  0.00  0.00  0.00  0.00
  WS02006110WS02006113    1.00   0.01  0.00  0.00  0.99  0.00  0.00  0.00  0.00  0.00
  WS02006111WS02006112    1.00   0.01  0.00  0.00  0.99  0.00  0.00  0.00  0.69  0.00
  WS02006112WS02006115    1.00   0.01  0.00  0.00  0.98  0.00  0.00  0.00  0.00  0.00
  WS02006113WS02006111    1.00   0.01  0.00  0.00  0.30  0.68  0.00  0.00  0.14  0.00
  WS02006115WS02006116    1.00   0.01  0.00  0.00  0.98  0.00  0.00  0.00  0.00  0.00
  WS02006116WS02004401    1.00   0.01  0.00  0.00  0.99  0.00  0.00  0.00  0.00  0.00
  WS02006228WS02006109    1.00   0.00  0.00  0.00  0.99  0.00  0.00  0.00  0.01  0.00
  WS02006229WS02006228    1.00   0.00  0.00  0.00  0.99  0.00  0.00  0.01  0.00  0.00
  WS02006230WS02006229    1.00   0.00  0.00  0.00  0.99  0.00  0.00  0.01  0.00  0.00
  WS02006231WS02006230    1.00   0.00  0.00  0.00  0.64  0.00  0.36  0.00  0.00  0.00
  WS02006232WS02006231    1.00   0.00  0.00  0.00  0.99  0.00  0.00  0.00  0.00  0.00
  WS02006234WS02006232    1.00   0.00  0.00  0.00  1.00  0.00  0.00  0.00  0.00  0.00
  WS02006235WS02006234    1.00   0.00  0.00  0.00  0.95  0.00  0.05  0.00  0.00  0.00
  WS02006238WS02006235    1.00   0.00  0.00  0.00  1.00  0.00  0.00  0.00  0.00  0.00
  WS02006239WS02006238    1.00   0.00  0.00  0.00  1.00  0.00  0.00  0.00  0.03  0.00
  WS02006240WS02006239    1.00   0.00  0.00  0.00  0.91  0.00  0.00  0.09  0.06  0.00
  WS02006242WS02006240    1.00   0.00  0.00  0.00  0.98  0.00  0.02  0.00  0.00  0.00
  WS02006243WS02006242    1.00   0.00  0.00  0.00  0.99  0.00  0.00  0.01  0.37  0.00
  WS02006245WS02006243    1.00   0.00  0.00  0.00  0.91  0.00  0.00  0.09  0.00  0.00
  WS02006247WS02006245    1.00   0.00  0.00  0.00  0.98  0.00  0.00  0.02  0.00  0.00
  WS02006248WS02006247    1.00   0.00  0.00  0.00  0.99  0.00  0.00  0.01  0.39  0.00
  WS02006249WS02006248    1.00   0.00  0.00  0.00  0.75  0.00  0.25  0.00  0.00  0.00
  WS02006251WS02006249    1.00   0.00  0.00  0.00  1.00  0.00  0.00  0.00  0.38  0.00
  WS02006252WS02006251    1.00   0.04  0.04  0.00  0.39  0.00  0.53  0.00  0.00  0.00
  WS02006253WS02006251    1.00   0.00  0.00  0.00  1.00  0.00  0.00  0.00  0.00  0.00
  WS02006256WS02006235    1.00   0.00  0.00  0.00  1.00  0.00  0.00  0.00  0.00  0.00
  WS02006280WS02006229    1.00   0.16  0.00  0.00  0.27  0.04  0.00  0.54  0.01  0.00
  WS02006284WS02006280    1.00   0.16  0.00  0.00  0.16  0.01  0.00  0.67  0.00  0.00
  WS02006287WS02006284    1.00   0.14  0.03  0.00  0.37  0.46  0.00  0.00  0.54  0.00
  WSF200WS02003060        1.00   0.00  0.03  0.00  0.37  0.60  0.00  0.00  0.41  0.00
  YS02001580YS02001583    1.00   0.25  0.47  0.00  0.28  0.00  0.00  0.00  0.60  0.00
  YS02001583YS02001586    1.00   0.19  0.41  0.00  0.40  0.00  0.00  0.00  0.60  0.00
  YS02001586YS02001590    1.00   0.15  0.00  0.00  0.65  0.04  0.00  0.16  0.46  0.00
  YS02001590YS02001593    1.00   0.15  0.00  0.00  0.19  0.00  0.66  0.00  0.00  0.00
  YS02001593YS02001596    1.00   0.15  0.00  0.00  0.23  0.01  0.00  0.61  0.04  0.00
  YS02001596YS02001600    1.00   0.15  0.00  0.00  0.32  0.02  0.00  0.51  0.06  0.00
  YS02001600YS02001601    1.00   0.15  0.01  0.00  0.84  0.00  0.00  0.00  0.47  0.00
  YS02001601YS02001602    1.00   0.15  0.01  0.00  0.85  0.00  0.00  0.00  0.00  0.00
  YS02001602YS02001605    1.00   0.15  0.00  0.00  0.85  0.00  0.00  0.00  0.00  0.00
  YS02001605YS02001607    1.00   0.16  0.00  0.00  0.84  0.00  0.00  0.00  0.00  0.00
  YS02001607YS02001610    1.00   0.15  0.00  0.00  0.84  0.00  0.00  0.00  0.02  0.00
  YS02001610YS02001613    1.00   0.15  0.00  0.00  0.85  0.00  0.00  0.00  0.01  0.00
  YS02001613YS02001616    1.00   0.15  0.00  0.00  0.85  0.00  0.00  0.00  0.01  0.00
  YS02001616YS02001619    1.00   0.15  0.00  0.00  0.85  0.00  0.00  0.00  0.00  0.00
  YS02001619YS02001622    1.00   0.15  0.00  0.00  0.85  0.00  0.00  0.00  0.06  0.00
  YS02001622YS02001625    1.00   0.15  0.00  0.00  0.85  0.00  0.00  0.00  0.05  0.00
  YS02001625YS02001629    1.00   0.15  0.04  0.00  0.31  0.00  0.50  0.00  0.00  0.00
  YS02001629YS02163301    1.00   0.17  0.00  0.00  0.83  0.00  0.00  0.00  0.00  0.00
  YS02001633YS02163601    1.00   0.00  0.01  0.00  0.99  0.00  0.00  0.00  0.20  0.00
  YS02001641YS02001644    1.00   0.00  0.01  0.00  0.99  0.00  0.00  0.00  0.00  0.00
  YS02001644YS02001647    1.00   0.00  0.17  0.00  0.83  0.00  0.00  0.00  0.00  0.00
  YS02001647YS02001649    1.00   0.00  0.17  0.00  0.58  0.24  0.00  0.00  0.46  0.00
  YS02001649YS02001757    1.00   0.00  0.00  0.00  0.89  0.11  0.00  0.00  0.63  0.00
  YS02001652YS02001649    1.00   0.00  0.00  0.00  0.96  0.04  0.00  0.00  0.60  0.00
  YS02001655YS02001652    1.00   0.00  0.00  0.00  0.40  0.01  0.00  0.59  0.04  0.00
  YS02001658YS02001655    1.00   0.00  0.16  0.00  0.67  0.17  0.00  0.00  0.54  0.00
  YS02001661YS02001658    1.00   0.16  0.00  0.00  0.33  0.51  0.00  0.00  0.68  0.00
  YS02001664YS02001661    1.00   0.15  0.00  0.00  0.61  0.24  0.00  0.00  0.83  0.00
  YS02001745YS02001748    1.00   0.00  0.00  0.00  0.16  0.04  0.00  0.80  0.16  0.00
  YS02001748YS02001751    1.00   0.00  0.00  0.00  0.85  0.15  0.00  0.00  0.69  0.00
  YS02001751YS02001754    1.00   0.00  0.00  0.00  0.39  0.01  0.00  0.60  0.04  0.00
  YS02001754YS02001757    1.00   0.00  0.00  0.00  1.00  0.00  0.00  0.00  0.67  0.00
  YS02001757CaochengTiaoxuchi    1.00   0.00  0.00  0.00  0.58  0.42  0.00  0.00  0.16  0.00
  YS02001759YS02001757    1.00   0.00  0.00  0.00  1.00  0.00  0.00  0.00  0.52  0.00
  YS02001762YS02001759    1.00   0.00  0.00  0.00  1.00  0.00  0.00  0.00  0.05  0.00
  YS02001765YS02001762    1.00   0.00  0.00  0.00  1.00  0.00  0.00  0.00  0.56  0.00
  YS02001767YS02001765    1.00   0.00  0.00  0.00  1.00  0.00  0.00  0.00  0.00  0.00
  YS02001770YS02001767    1.00   0.00  0.00  0.00  1.00  0.00  0.00  0.00  0.00  0.00
  YS02001774YS02001770    1.00   0.00  0.15  0.00  0.85  0.00  0.00  0.00  0.04  0.00
  YS02001779YS02001774    1.00   0.00  0.00  0.00  1.00  0.00  0.00  0.00  0.64  0.00
  YS02001783YS02001784    1.00   0.00  0.19  0.00  0.81  0.00  0.00  0.00  0.41  0.00
  YS02001784YS02001785    1.00   0.00  0.00  0.00  1.00  0.00  0.00  0.00  0.21  0.00
  YS02001786YS02001788    1.00   0.00  0.00  0.00  0.65  0.35  0.00  0.00  0.00  0.00
  YS02001788YS02001790    1.00   0.00  0.00  0.00  0.28  0.71  0.00  0.00  0.73  0.00
  YS02001790YS02001791    1.00   0.00  0.00  0.00  0.05  0.95  0.00  0.00  0.21  0.00
  YS02001791YS02001793    1.00   0.00  0.00  0.00  0.04  0.96  0.00  0.00  0.01  0.00
  YS02001793JiankangQianchi    1.00   0.00  0.00  0.00  0.17  0.83  0.00  0.00  0.13  0.00
  YS02001882YS02001884    1.00   0.17  0.00  0.00  0.83  0.00  0.00  0.00  0.00  0.00
  YS02001884YS02001887    1.00   0.09  0.05  0.00  0.86  0.00  0.00  0.00  0.00  0.00
  YS02001887YS02001890    1.00   0.00  0.00  0.00  0.98  0.00  0.02  0.00  0.00  0.00
  YS02001890YS02001895    1.00   0.00  0.17  0.00  0.83  0.00  0.00  0.00  0.00  0.00
  YS02001895YS02001898    1.00   0.17  0.00  0.00  0.79  0.00  0.04  0.00  0.00  0.00
  YS02001898YS02001901    1.00   0.17  0.00  0.00  0.83  0.00  0.00  0.00  0.01  0.00
  YS02001901YS02001904    1.00   0.17  0.00  0.00  0.83  0.00  0.00  0.00  0.00  0.00
  YS02001904YS02001907    1.00   0.00  0.17  0.00  0.83  0.00  0.00  0.00  0.00  0.00
  YS02001907YS02006553    1.00   0.00  0.01  0.00  0.98  0.00  0.00  0.00  0.00  0.00
  YS02001910YS02001907    1.00   0.00  0.00  0.00  0.98  0.00  0.00  0.02  0.16  0.00
  YS02001915YS02001910    1.00   0.00  0.00  0.00  0.98  0.02  0.00  0.00  0.19  0.00
  YS02001918YS02001915    1.00   0.00  0.00  0.00  0.98  0.01  0.00  0.00  0.67  0.00
  YS02001920YS02001918    1.00   0.00  0.00  0.00  1.00  0.00  0.00  0.00  0.00  0.00
  YS02001923YS02001920    1.00   0.00  0.00  0.00  1.00  0.00  0.00  0.00  0.90  0.00
  YS02001926YS02001923    1.00   0.00  0.11  0.00  0.10  0.00  0.79  0.00  0.00  0.00
  YS02001929YS02001926    1.00   0.00  0.15  0.00  0.85  0.00  0.00  0.00  0.76  0.00
  YS02006553YS02006556    1.00   0.01  0.00  0.00  0.99  0.00  0.00  0.00  0.04  0.00
  YS02006556YS02006558    1.00   0.00  0.00  0.00  1.00  0.00  0.00  0.00  0.00  0.00
  YS02006558YS02006561    1.00   0.19  0.00  0.00  0.10  0.71  0.00  0.00  0.26  0.00
  YS02006561YS02001783    1.00   0.19  0.00  0.00  0.13  0.68  0.00  0.00  0.59  0.00
  YS02163301YS02001633    1.00   0.00  0.17  0.00  0.83  0.00  0.00  0.00  0.00  0.00
  YS02163601YS02164001    1.00   0.00  0.12  0.00  0.88  0.00  0.00  0.00  0.00  0.00
  YS02164001YS02001641    1.00   0.01  0.11  0.00  0.88  0.00  0.00  0.00  0.07  0.00
  YSB1154YSB6556          1.00   0.15  0.00  0.00  0.85  0.00  0.00  0.00  0.02  0.00
  YSB1171HS02004479       1.00   0.03  0.00  0.00  0.93  0.01  0.00  0.04  0.13  0.00
  YSB1174YSB1171          1.00   0.06  0.07  0.00  0.87  0.00  0.00  0.00  0.00  0.00
  YSB6556YSB1171          1.00   0.03  0.12  0.00  0.85  0.00  0.00  0.00  0.00  0.00
  
  
  *************************
  Conduit Surcharge Summary
  *************************
  
  ----------------------------------------------------------------------------
                                                           Hours        Hours 
                         --------- Hours Full --------   Above Full   Capacity
  Conduit                Both Ends  Upstream  Dnstream   Normal Flow   Limited
  ----------------------------------------------------------------------------
  HS02004478WS02006287        0.41      0.41      0.59      0.01         0.01
  HS02004479HS02004480        0.60      0.60      0.62      0.01         0.01
  HS02004480HS02004478        0.52      0.60      0.52      1.72         0.52
  HS02004770HS02004777        0.51      0.51      0.51      0.12         0.10
  HS02004777HS02004785        0.45      0.45      0.51      0.01         0.01
  HS02004785HS02004788        0.44      0.45      0.44      1.52         0.43
  HS02004788HS02004792        0.44      0.44      0.57      0.01         0.01
  HS02004792HS02004799        0.57      0.57      0.69      0.01         0.01
  HS02004799HS02004480        0.60      0.60      0.69      0.81         0.01
  HS02004802HS02004478        0.53      0.53      0.61      0.01         0.01
  HS02004807HS02004802        0.59      0.59      0.60      0.07         0.09
  HS02004817HS02004807        0.59      0.59      1.26      0.01         0.01
  HS02004817HS02004824        0.43      0.43      1.26      0.01         0.01
  HS02004824HS02004830        0.39      0.39      0.43      0.01         0.01
  HS02004830HS02004837        0.36      0.36      0.39      0.01         0.01
  HS02004837HS02004842        0.36      0.36      0.50      0.01         0.01
  HS02004842HS02004848        0.34      0.34      0.50      0.01         0.01
  HS02004848HS02004852        0.33      0.34      0.34      0.03         0.01
  HS02004852HS02004856        0.34      0.34      0.35      0.02         0.01
  HS02004856HS02004862        0.32      0.32      0.34      0.02         0.01
  HS02004862HS02004870        0.34      0.34      0.35      0.03         0.02
  HS02004870HS02004876        0.35      0.35      0.41      0.01         0.01
  HS02004876HS02004881        0.37      0.41      0.37      1.56         0.37
  HS02004881HS02006253        0.37      0.37      2.11      0.01         0.01
  HS02004901HS02004770        0.51      0.51      0.52      0.01         0.01
  WS02003072WS02003073        0.01      0.01      0.01      3.13         0.01
  WS02004401WS02004402        1.67      1.67      1.68      1.53         1.50
  WS02004402WS02004403        1.68      1.68      1.69      1.68         1.66
  WS02004403WS02004404        1.69      1.69      1.74      0.01         0.01
  WS02004404WS02004405        1.73      1.74      1.73      3.89         1.73
  WS02004405WS02004406        1.72      1.73      1.72      2.23         1.72
  WS02004406WS02004407        0.01      0.01      1.72      0.01         0.01
  WS02004407WS02004409        0.01      0.01      1.01      0.01         0.01
  WS02004409WS02004410        0.89      1.01      0.89      1.59         0.89
  WS02004410WS02004411        0.83      0.89      0.83      1.64         0.83
  WS02004411WS02004412        0.73      0.83      0.73      1.66         0.73
  WS02004412WS02004413        0.73      0.73      1.46      0.01         0.01
  WS02004413WS02003067        0.01      0.01      1.46      0.01         0.01
  WS02006109WS02006110        2.11      2.11      2.79      2.12         0.01
  WS02006110WS02006113        1.45      1.45      2.75      0.28         0.01
  WS02006111WS02006112        1.41      1.41      3.02      0.01         0.01
  WS02006112WS02006115        1.59      1.59      2.34      0.01         0.01
  WS02006113WS02006111        1.43      1.45      1.43      1.52         1.42
  WS02006115WS02006116        1.60      1.60      1.61      1.61         1.57
  WS02006116WS02004401        1.67      1.67      1.67      1.66         1.63
  WS02006228WS02006109        2.69      2.79      2.69      3.35         2.69
  WS02006229WS02006228        2.67      2.71      2.67      3.06         2.67
  WS02006230WS02006229        2.86      2.97      2.86      3.83         1.88
  WS02006231WS02006230        1.87      1.87      2.13      3.56         0.96
  WS02006232WS02006231        2.07      2.07      2.72      0.07         0.14
  WS02006234WS02006232        2.57      2.57      2.72      0.05         0.06
  WS02006235WS02006234        2.47      2.48      2.60      3.39         0.95
  WS02006238WS02006235        2.63      2.63      2.70      0.01         0.33
  WS02006239WS02006238        2.64      2.65      2.65      1.83         0.90
  WS02006240WS02006239        2.55      2.56      2.56      1.79         0.85
  WS02006242WS02006240        2.54      2.54      2.73      2.34         0.82
  WS02006243WS02006242        2.51      2.51      2.65      0.01         0.01
  WS02006245WS02006243        2.48      2.48      2.50      0.97         0.76
  WS02006247WS02006245        2.48      2.50      2.48      2.92         1.08
  WS02006248WS02006247        2.46      2.46      2.49      0.02         0.02
  WS02006249WS02006248        2.44      2.44      2.47      1.81         0.01
  WS02006251WS02006249        2.45      2.47      2.47      2.38         2.04
  WS02006252WS02006251        2.75      2.75      2.80      1.52         0.01
  WS02006253WS02006251        2.46      2.46      2.48      0.74         0.03
  WS02006256WS02006235        3.61      3.62      5.85      0.78         0.01
  WS02006280WS02006229        0.74      0.74      0.87      0.01         0.01
  WS02006284WS02006280        0.62      0.62      0.72      0.01         0.01
  WS02006287WS02006284        0.52      0.52      0.63      0.17         0.17
  YS02001580YS02001583        0.50      0.50      0.57      0.01         0.01
  YS02001583YS02001586        0.52      0.52      0.69      0.01         0.01
  YS02001586YS02001590        0.70      0.70      0.79      0.01         0.01
  YS02001590YS02001593        0.79      0.79      0.81      0.84         0.01
  YS02001593YS02001596        0.80      0.80      0.94      0.01         0.01
  YS02001596YS02001600        1.01      1.01      1.14      0.01         0.01
  YS02001600YS02001601        1.21      1.21      1.53      0.01         0.01
  YS02001601YS02001602        1.40      1.40      1.56      1.07         0.01
  YS02001602YS02001605        1.36      1.36      1.40      2.21         0.01
  YS02001605YS02001607        1.32      1.36      1.32      1.47         1.32
  YS02001607YS02001610        0.80      0.80      0.86      0.01         0.01
  YS02001610YS02001613        0.80      0.80      0.86      0.01         0.01
  YS02001613YS02001616        0.72      0.72      0.80      0.01         0.01
  YS02001616YS02001619        0.69      0.69      0.72      0.01         0.01
  YS02001619YS02001622        0.69      0.69      0.69      0.76         0.67
  YS02001622YS02001625        0.69      0.69      1.03      0.01         0.01
  YS02001625YS02001629        0.55      0.55      1.03      0.01         0.01
  YS02001629YS02163301        1.04      1.04      1.06      0.37         0.37
  YS02001633YS02163601        1.09      1.09      1.14      0.56         0.56
  YS02001641YS02001644        1.05      1.07      1.05      1.57         1.05
  YS02001644YS02001647        0.34      0.34      1.05      0.04         0.01
  YS02001647YS02001649        0.34      0.34      1.00      0.01         0.01
  YS02001649YS02001757        1.00      1.00      1.12      0.42         0.38
  YS02001652YS02001649        0.23      0.23      1.00      0.01         0.01
  YS02001655YS02001652        0.10      0.10      0.21      0.01         0.01
  YS02001658YS02001655        0.01      0.01      0.10      0.01         0.01
  YS02001661YS02001658        0.01      0.01      0.01      0.01         0.01
  YS02001748YS02001751        0.01      0.01      0.04      0.01         0.01
  YS02001751YS02001754        0.04      0.04      0.11      0.01         0.01
  YS02001754YS02001757        0.14      0.14      1.12      0.01         0.01
  YS02001757CaochengTiaoxuchi        0.78      1.12      1.73      0.38         0.02
  YS02001759YS02001757        0.80      0.80      1.12      0.01         0.01
  YS02001762YS02001759        0.70      0.70      0.80      0.01         0.01
  YS02001765YS02001762        0.38      0.38      0.70      0.01         0.01
  YS02001767YS02001765        0.24      0.24      0.39      0.01         0.01
  YS02001770YS02001767        0.22      0.23      0.24      0.48         0.21
  YS02001774YS02001770        0.21      0.21      0.60      0.01         0.01
  YS02001779YS02001774        0.14      0.14      0.60      0.01         0.01
  YS02001783YS02001784        0.54      0.56      0.54      0.67         0.54
  YS02001784YS02001785        0.51      0.54      0.51      0.90         0.51
  YS02001786YS02001788        0.25      0.51      0.25      0.75         0.25
  YS02001788YS02001790        0.25      0.25      0.26      0.01         0.01
  YS02001790YS02001791        0.26      0.26      0.26      0.43         0.14
  YS02001791YS02001793        0.26      0.26      0.27      0.01         0.01
  YS02001793JiankangQianchi        0.27      0.27      0.74      0.01         0.01
  YS02001882YS02001884        0.52      0.52      0.53      0.01         0.01
  YS02001884YS02001887        0.54      0.54      0.55      0.01         0.01
  YS02001887YS02001890        0.57      0.57      0.58      0.01         0.01
  YS02001890YS02001895        0.51      0.51      0.59      0.01         0.01
  YS02001895YS02001898        0.50      0.50      0.51      0.01         0.01
  YS02001898YS02001901        0.51      0.51      0.54      0.01         0.01
  YS02001901YS02001904        0.54      0.54      0.54      0.01         0.01
  YS02001904YS02001907        0.54      0.54      0.74      0.01         0.01
  YS02001907YS02006553        0.91      0.91      0.98      0.01         0.01
  YS02001910YS02001907        0.58      0.58      0.72      0.01         0.01
  YS02001915YS02001910        0.52      0.52      0.58      0.01         0.01
  YS02001918YS02001915        0.40      0.40      0.52      0.01         0.01
  YS02001920YS02001918        0.40      0.40      0.42      0.01         0.01
  YS02001923YS02001920        0.34      0.34      0.42      0.01         0.01
  YS02001926YS02001923        0.01      0.01      0.01      0.01         0.01
  YS02001929YS02001926        0.01      0.01      0.01      0.01         0.01
  YS02006553YS02006556        0.65      0.65      0.73      0.01         0.01
  YS02006556YS02006558        0.70      0.70      0.76      0.01         0.01
  YS02006558YS02006561        0.51      0.64      0.51      0.85         0.51
  YS02006561YS02001783        0.44      0.44      0.56      0.01         0.01
  YS02163301YS02001633        1.06      1.06      1.11      0.01         0.01
  YS02163601YS02164001        1.07      1.07      1.14      0.31         0.01
  YS02164001YS02001641        1.06      1.07      1.07      0.85         0.82
  YSB1154YSB6556              0.66      0.66      0.84      0.01         0.01
  YSB1171HS02004479           0.56      0.56      0.85      0.01         0.01
  YSB1174YSB1171              0.73      0.73      1.14      0.01         0.01
  YSB6556YSB1171              0.66      0.66      1.34      0.01         0.01
  
  
  ***************
  Pumping Summary
  ***************
  
  ---------------------------------------------------------------------------------------------------------
                                                  Min       Avg       Max     Total     Power    % Time Off
                        Percent   Number of      Flow      Flow      Flow    Volume     Usage    Pump Curve
  Pump                 Utilized   Start-Ups       LPS       LPS       LPS  10^6 ltr     Kw-hr    Low   High
  ---------------------------------------------------------------------------------------------------------
  CC-R1                   61.23          10      0.00    541.29    683.00     6.130    106.44    0.0   68.2
  CC-R2                   33.39          10      0.00    587.23    683.00     3.519     60.58    0.0   75.0
  CC-S1                   72.36           7      0.00    155.94    200.00     2.202     15.04    0.0   46.7
  CC-S2                   38.98          10      0.00    146.92    200.00     1.194      8.42    0.0   40.4
  JK-R1                   77.97           4      0.00    185.37   1000.00     2.498      7.97    0.0    0.0
  JK-R2                   47.33           8      0.00    239.77   1000.00     1.772      6.39    0.0    0.0
  JK-S                    38.76           9      0.00    181.15    300.00     1.301     25.45    0.0    0.0
  XR-1                    97.22           1      0.00     95.00     95.00     1.995      8.84    0.0    0.0
  XR-2                    91.94           1      0.00     95.00     95.00     1.887      8.00    0.0    0.0
  XR-3                     0.00           0      0.00      0.00      0.00     0.000      0.00    0.0    0.0
  XR-4                     0.00           0      0.00      0.00      0.00     0.000      0.00    0.0    0.0
  

  Analysis begun on:  Mon Aug 22 16:56:57 2022
  Analysis ended on:  Mon Aug 22 16:57:02 2022
  Total elapsed time: 00:00:05