
  EPA STORM WATER MANAGEMENT MODEL - VERSION 5.1 (Build 5.3.0.dev0)
  --------------------------------------------------------------

  WARNING 04: minimum elevation drop used for Conduit WS02004404WS02004405
  WARNING 03: negative offset ignored for Link YS02001904YS02001907
  
  *********************************************************
  NOTE: The summary statistics displayed in this report are
  based on results found at every computational time step,  
  not just on results from each reporting time step.
  *********************************************************
  
  ****************
  Analysis Options
  ****************
  Flow Units ............... LPS
  Process Models:
    Rainfall/Runoff ........ YES
    RDII ................... NO
    Snowmelt ............... NO
    Groundwater ............ NO
    Flow Routing ........... YES
    Ponding Allowed ........ NO
    Water Quality .......... NO
  Infiltration Method ...... HORTON
  Flow Routing Method ...... DYNWAVE
  Surcharge Method ......... EXTRAN
  Starting Date ............ 01/01/2000 00:00:00
  Ending Date .............. 01/01/2000 06:00:00
  Antecedent Dry Days ...... 8.0
  Report Time Step ......... 00:01:00
  Wet Time Step ............ 00:01:00
  Dry Time Step ............ 00:01:00
  Routing Time Step ........ 30.00 sec
  Variable Time Step ....... YES
  Maximum Trials ........... 8
  Number of Threads ........ 4
  Head Tolerance ........... 0.001500 m
  
  
  **************************        Volume         Depth
  Runoff Quantity Continuity     hectare-m            mm
  **************************     ---------       -------
  Total Precipitation ......         3.516        58.033
  Evaporation Loss .........         0.000         0.000
  Infiltration Loss ........         0.236         3.899
  Surface Runoff ...........         3.215        53.067
  Final Storage ............         0.065         1.081
  Continuity Error (%) .....        -0.024
  
  
  **************************        Volume        Volume
  Flow Routing Continuity        hectare-m      10^6 ltr
  **************************     ---------     ---------
  Dry Weather Inflow .......         0.472         4.722
  Wet Weather Inflow .......         3.216        32.161
  Groundwater Inflow .......         0.000         0.000
  RDII Inflow ..............         0.000         0.000
  External Inflow ..........         0.078         0.784
  External Outflow .........         2.593        25.930
  Flooding Loss ............         1.435        14.353
  Evaporation Loss .........         0.000         0.000
  Exfiltration Loss ........         0.000         0.000
  Initial Stored Volume ....         0.303         3.031
  Final Stored Volume ......         0.178         1.775
  Continuity Error (%) .....        -3.343
  
  
  *************************
  Highest Continuity Errors
  *************************
  Node JK-storage (-23.02%)
  Node YS02001884 (5.24%)
  Node YS02001583 (-4.25%)
  Node CC-storage (-2.71%)
  Node HS02004842 (1.81%)
  
  
  ***************************
  Time-Step Critical Elements
  ***************************
  Link WS02006252WS02006251 (42.93%)
  Link WS02006238WS02006235 (16.63%)
  Link WS02006280WS02006229 (13.13%)
  Link YS02001793JiankangQianchi (6.87%)
  Link WS02003066WSF200 (5.08%)
  
  
  ********************************
  Highest Flow Instability Indexes
  ********************************
  Link WS02006113WS02006111 (40)
  Link WS02006111WS02006112 (20)
  Link WS02006238WS02006235 (19)
  Link WS02004404WS02004405 (17)
  Link WS02006252WS02006251 (15)
  
  
  *************************
  Routing Time Step Summary
  *************************
  Minimum Time Step           :     0.50 sec
  Average Time Step           :     1.61 sec
  Maximum Time Step           :    30.00 sec
  Percent in Steady State     :    -0.00
  Average Iterations per Step :     3.27
  Percent Not Converging      :    13.06
  
  
  ***************************
  Subcatchment Runoff Summary
  ***************************
  
  ------------------------------------------------------------------------------------------------------------------------------
                            Total      Total      Total      Total     Imperv       Perv      Total       Total     Peak  Runoff
                           Precip      Runon       Evap      Infil     Runoff     Runoff     Runoff      Runoff   Runoff   Coeff
  Subcatchment                 mm         mm         mm         mm         mm         mm         mm    10^6 ltr      LPS
  ------------------------------------------------------------------------------------------------------------------------------
  sub0                      58.03       0.00       0.00       0.96      52.71       3.11      55.82        0.05    33.83   0.962
  sub1                      58.03       0.00       0.00       1.65      50.35       4.73      55.08        0.37   248.90   0.949
  sub10                     58.03       0.00       0.00       1.16      52.06       3.49      55.54        0.61   420.89   0.957
  sub11                     58.03       0.00       0.00       1.14      52.09       3.51      55.60        0.65   458.74   0.958
  sub12                     58.03       0.00       0.00       1.85      49.30       5.70      55.00        0.48   357.42   0.948
  sub14                     58.03       0.00       0.00       1.30      51.51       3.92      55.44        0.53   369.54   0.955
  sub15                     58.03       0.00       0.00       5.21      39.62      12.20      51.82        0.89   590.99   0.893
  sub16                     58.03       0.00       0.00       5.35      37.96      13.81      51.77        0.54   387.29   0.892
  sub17                     58.03       0.00       0.00       5.22      38.52      13.35      51.88        0.45   315.57   0.894
  sub2                      58.03       0.00       0.00       7.48      35.60      13.99      49.59        0.46   265.61   0.855
  sub22                     58.03       0.00       0.00       7.92      32.28      17.04      49.31        3.12  1990.11   0.850
  sub23                     58.03       0.00       0.00       6.44      35.68      15.04      50.72        2.42  1628.12   0.874
  sub3                      58.03       0.00       0.00       7.87      35.52      13.34      48.87        1.10   575.17   0.842
  sub4                      58.03       0.00       0.00       1.87      50.03       4.52      54.54        1.14   630.05   0.940
  sub5                      58.03       0.00       0.00       1.01      52.61       3.05      55.66        0.63   427.50   0.959
  sub60                     58.03       0.00       0.00       1.75      49.84       5.22      55.06        0.72   519.51   0.949
  sub61                     58.03       0.00       0.00       2.54      47.01       7.33      54.34        1.00   721.91   0.936
  sub62                     58.03       0.00       0.00       1.16      52.05       3.48      55.53        1.52  1035.70   0.957
  sub63                     58.03       0.00       0.00       4.75      40.21      12.08      52.29        1.19   831.16   0.901
  sub64                     58.03       0.00       0.00       2.39      48.05       6.31      54.37        1.31   859.01   0.937
  sub65                     58.03       0.00       0.00       2.07      49.15       5.47      54.62        1.50   964.27   0.941
  sub66                     58.03       0.00       0.00       5.95      40.01      10.88      50.88        2.37  1289.24   0.877
  sub67                     58.03       0.00       0.00       1.11      52.13       3.53      55.66        1.04   760.75   0.959
  sub68                     58.03       0.00       0.00       2.11      48.68       6.02      54.70        1.51  1055.91   0.943
  sub69                     58.03       0.00       0.00       1.89      49.13       6.82      55.95        2.07  1282.98   0.964
  sub7                      58.03       0.00       0.00       1.28      51.54       3.95      55.49        0.19   134.67   0.956
  sub70                     58.03       0.00       0.00       6.42      38.00      13.32      51.31        1.48   723.20   0.884
  sub71                     58.03       0.00       0.00       1.20      51.97       3.44      55.41        1.45   929.83   0.955
  sub72                     58.03       0.00       0.00       1.07      52.42       2.99      55.41        0.76   455.28   0.955
  sub8                      58.03       0.00       0.00       1.29      51.52       3.93      55.45        0.35   250.20   0.956
  sub9                      58.03       0.00       0.00       1.30      51.52       3.93      55.44        0.27   187.45   0.955
  
  
  ******************
  Node Depth Summary
  ******************
  
  ---------------------------------------------------------------------------------
                                 Average  Maximum  Maximum  Time of Max    Reported
                                   Depth    Depth      HGL   Occurrence   Max Depth
  Node                 Type       Meters   Meters   Meters  days hr:min      Meters
  ---------------------------------------------------------------------------------
  HS02004478           JUNCTION     0.21     1.59    10.81     0  02:22        1.58
  HS02004479           JUNCTION     0.29     1.70    10.90     0  02:17        1.66
  HS02004480           JUNCTION     0.26     1.67    10.91     0  02:17        1.63
  HS02004770           JUNCTION     0.26     1.42    11.25     0  02:12        1.42
  HS02004777           JUNCTION     0.29     1.48    11.28     0  02:13        1.45
  HS02004785           JUNCTION     0.18     1.49    11.39     0  02:13        1.34
  HS02004788           JUNCTION     0.15     1.42    11.32     0  02:13        1.34
  HS02004792           JUNCTION     0.20     1.60    11.12     0  02:11        1.60
  HS02004799           JUNCTION     0.32     1.76    10.97     0  02:17        1.76
  HS02004802           JUNCTION     0.32     1.80    10.93     0  02:24        1.79
  HS02004807           JUNCTION     0.29     1.92    11.09     0  02:22        1.92
  HS02004817           JUNCTION     0.60     2.40    11.25     0  02:17        2.39
  HS02004824           JUNCTION     0.16     1.99    11.40     0  02:17        1.98
  HS02004830           JUNCTION     0.16     2.01    11.48     0  02:17        1.94
  HS02004837           JUNCTION     0.14     1.96    11.54     0  02:17        1.87
  HS02004842           JUNCTION     0.44     2.22    11.49     0  02:17        2.18
  HS02004848           JUNCTION     0.11     2.05    11.65     0  02:17        1.86
  HS02004852           JUNCTION     0.12     2.12    11.63     0  02:17        1.92
  HS02004856           JUNCTION     0.18     2.07    11.50     0  02:17        2.07
  HS02004862           JUNCTION     0.13     2.00    11.38     0  02:16        1.95
  HS02004870           JUNCTION     0.12     2.10    11.39     0  02:16        1.94
  HS02004876           JUNCTION     0.17     2.07    11.10     0  02:17        2.02
  HS02004881           JUNCTION     0.11     1.99    11.02     0  02:16        1.77
  HS02004901           JUNCTION     0.27     1.42    11.24     0  02:12        1.42
  WS02001211           JUNCTION     0.64     0.81     5.65     0  02:27        0.81
  WS02001212           JUNCTION     0.38     0.58     5.64     0  02:27        0.58
  WS02001213           JUNCTION     0.61     0.87     5.63     0  02:27        0.87
  WS02003059           JUNCTION     0.68     0.94     5.63     0  02:26        0.94
  WS02003060           JUNCTION     0.40     0.69     5.62     0  02:26        0.69
  WS02003066           JUNCTION     0.25     0.46     6.01     0  02:25        0.46
  WS02003067           JUNCTION     0.58     0.89     6.21     0  02:25        0.89
  WS02003069           JUNCTION     0.44     0.78     5.37     0  02:26        0.78
  WS02003072           JUNCTION     0.51     0.81     5.19     0  02:27        0.81
  WS02003073           JUNCTION     0.30     0.52     4.58     0  02:27        0.52
  WS02004138           JUNCTION     0.14     0.14     7.39     0  00:29        0.14
  WS02004139           JUNCTION     0.58     0.75     5.66     0  02:28        0.75
  WS02004401           JUNCTION     0.81     1.88     7.88     0  02:24        1.87
  WS02004402           JUNCTION     0.83     1.82     7.78     0  02:24        1.81
  WS02004403           JUNCTION     0.84     1.74     7.67     0  02:25        1.74
  WS02004404           JUNCTION     0.90     1.76     7.61     0  02:24        1.74
  WS02004405           JUNCTION     0.89     1.70     7.55     0  02:25        1.69
  WS02004406           JUNCTION     0.88     1.59     7.42     0  02:25        1.58
  WS02004407           JUNCTION     0.28     0.94     7.26     0  02:25        0.94
  WS02004409           JUNCTION     0.57     1.40     7.17     0  02:25        1.39
  WS02004410           JUNCTION     0.58     1.30     7.02     0  02:25        1.30
  WS02004411           JUNCTION     0.58     1.22     6.90     0  02:25        1.20
  WS02004412           JUNCTION     0.58     1.11     6.75     0  02:25        1.11
  WS02004413           JUNCTION     0.73     1.15     6.62     0  02:25        1.15
  WS02006109           JUNCTION     1.02     2.64     9.26     0  02:13        2.64
  WS02006110           JUNCTION     0.96     2.40     8.98     0  02:24        2.39
  WS02006111           JUNCTION     0.42     1.76     8.47     0  02:24        1.76
  WS02006112           JUNCTION     1.03     2.68     8.56     0  00:00        2.38
  WS02006113           JUNCTION     0.52     1.84     8.73     0  02:24        1.83
  WS02006115           JUNCTION     0.73     1.98     8.12     0  02:24        1.97
  WS02006116           JUNCTION     0.80     1.97     8.01     0  02:24        1.97
  WS02006228           JUNCTION     1.07     3.03     9.68     0  02:24        3.02
  WS02006229           JUNCTION     1.08     3.22     9.92     0  02:22        3.22
  WS02006230           JUNCTION     1.01     2.65     9.39     0  02:09        2.65
  WS02006231           JUNCTION     0.73     2.19     9.31     0  02:18        2.19
  WS02006232           JUNCTION     0.84     2.18     9.22     0  02:09        2.18
  WS02006234           JUNCTION     0.73     1.96     9.12     0  02:09        1.96
  WS02006235           JUNCTION     0.75     1.98     9.14     0  02:20        1.93
  WS02006238           JUNCTION     0.77     1.99     9.13     0  02:20        1.93
  WS02006239           JUNCTION     0.72     1.84     9.05     0  02:20        1.78
  WS02006240           JUNCTION     0.66     1.66     8.96     0  02:20        1.62
  WS02006242           JUNCTION     0.71     1.55     8.82     0  02:07        1.55
  WS02006243           JUNCTION     0.59     1.38     8.80     0  03:00        1.36
  WS02006245           JUNCTION     0.57     1.27     8.76     0  03:00        1.26
  WS02006247           JUNCTION     0.58     1.23     8.73     0  02:07        1.22
  WS02006248           JUNCTION     0.52     1.10     8.69     0  01:50        1.10
  WS02006249           JUNCTION     0.54     1.09     8.69     0  01:48        1.09
  WS02006251           JUNCTION     0.60     2.21     9.88     0  02:16        2.14
  WS02006252           JUNCTION     0.40     1.50     9.74     0  02:16        1.50
  WS02006253           JUNCTION     0.67     3.32    10.96     0  02:16        3.05
  WS02006256           JUNCTION     1.04     2.35     9.28     0  01:20        2.35
  WS02006280           JUNCTION     0.27     1.74    10.01     0  02:23        1.73
  WS02006284           JUNCTION     0.55     1.95    10.35     0  02:23        1.94
  WS02006287           JUNCTION     0.28     1.74    10.69     0  02:26        1.73
  WSF200               JUNCTION     0.24     0.52     5.76     0  02:25        0.52
  YS02001580           JUNCTION     0.07     1.05     9.59     0  02:12        0.77
  YS02001583           JUNCTION     0.10     1.14     9.64     0  02:12        0.81
  YS02001586           JUNCTION     0.18     1.13     9.30     0  02:12        1.13
  YS02001590           JUNCTION     0.28     1.38     9.24     0  02:12        1.37
  YS02001593           JUNCTION     0.20     1.31     9.18     0  02:12        1.28
  YS02001596           JUNCTION     0.28     1.68     9.10     0  02:12        1.65
  YS02001600           JUNCTION     0.35     1.87     9.00     0  02:12        1.86
  YS02001601           JUNCTION     0.56     2.06     8.90     0  02:12        2.06
  YS02001602           JUNCTION     0.47     1.87     8.77     0  02:12        1.87
  YS02001605           JUNCTION     0.44     1.78     8.68     0  02:12        1.77
  YS02001607           JUNCTION     0.43     1.65     8.49     0  02:40        1.64
  YS02001610           JUNCTION     0.48     1.68     8.48     0  02:12        1.68
  YS02001613           JUNCTION     0.44     1.67     8.52     0  02:12        1.66
  YS02001616           JUNCTION     0.37     1.60     8.51     0  02:12        1.59
  YS02001619           JUNCTION     0.34     1.59     8.51     0  02:24        1.58
  YS02001622           JUNCTION     0.33     1.56     8.47     0  02:24        1.56
  YS02001625           JUNCTION     0.59     1.78     8.38     0  02:16        1.78
  YS02001629           JUNCTION     0.47     1.85     8.40     0  02:18        1.85
  YS02001633           JUNCTION     0.55     2.02     8.47     0  02:18        1.98
  YS02001641           JUNCTION     0.54     1.95     8.38     0  02:20        1.94
  YS02001644           JUNCTION     0.53     1.92     8.35     0  02:20        1.92
  YS02001647           JUNCTION     0.33     1.80     8.41     0  02:20        1.71
  YS02001649           JUNCTION     0.41     2.05     8.44     0  02:20        1.91
  YS02001652           JUNCTION     0.29     2.12     8.72     0  02:20        1.73
  YS02001655           JUNCTION     0.20     1.93     8.78     0  02:20        1.51
  YS02001658           JUNCTION     0.12     2.16     9.31     0  02:20        1.26
  YS02001661           JUNCTION     0.14     1.03     8.44     0  02:25        1.03
  YS02001664           JUNCTION     0.06     0.42     8.34     0  02:25        0.42
  YS02001745           JUNCTION     0.06     0.70     8.22     0  02:25        0.70
  YS02001748           JUNCTION     0.12     1.50     8.57     0  02:21        1.14
  YS02001751           JUNCTION     0.17     1.53     8.41     0  02:21        1.33
  YS02001754           JUNCTION     0.26     1.70     8.30     0  02:21        1.57
  YS02001757           JUNCTION     0.46     1.96     8.22     0  02:21        1.91
  YS02001759           JUNCTION     0.39     1.93     8.30     0  02:21        1.91
  YS02001762           JUNCTION     0.38     1.94     8.34     0  02:21        1.89
  YS02001765           JUNCTION     0.35     1.92     8.37     0  02:21        1.87
  YS02001767           JUNCTION     0.34     1.90     8.39     0  02:21        1.86
  YS02001770           JUNCTION     0.36     1.93     8.43     0  02:21        1.90
  YS02001774           JUNCTION     0.42     1.99     8.41     0  02:21        1.96
  YS02001779           JUNCTION     0.23     1.68     8.37     0  02:17        1.68
  YS02001783           JUNCTION     0.24     1.80     7.94     0  02:25        1.48
  YS02001784           JUNCTION     0.26     1.79     7.86     0  02:25        1.43
  YS02001786           JUNCTION     0.23     1.64     7.67     0  02:25        1.27
  YS02001788           JUNCTION     0.17     1.58     7.56     0  02:25        1.13
  YS02001790           JUNCTION     0.21     1.65     7.29     0  02:25        1.29
  YS02001791           JUNCTION     0.16     1.66     7.13     0  02:25        1.27
  YS02001793           JUNCTION     0.16     1.91     6.74     0  02:25        1.79
  YS02001882           JUNCTION     0.29     1.64     8.36     0  02:23        1.63
  YS02001884           JUNCTION     0.38     1.74     8.36     0  02:23        1.73
  YS02001887           JUNCTION     0.46     1.82     8.36     0  02:24        1.81
  YS02001890           JUNCTION     0.49     1.81     8.32     0  02:16        1.81
  YS02001895           JUNCTION     0.26     1.57     8.31     0  02:20        1.56
  YS02001898           JUNCTION     0.27     1.56     8.30     0  02:20        1.56
  YS02001901           JUNCTION     0.38     1.68     8.28     0  02:19        1.67
  YS02001904           JUNCTION     0.36     1.64     8.27     0  02:16        1.63
  YS02001907           JUNCTION     0.68     1.96     8.25     0  02:16        1.96
  YS02001910           JUNCTION     0.48     1.96     8.47     0  02:17        1.87
  YS02001915           JUNCTION     0.29     1.91     8.63     0  02:17        1.76
  YS02001918           JUNCTION     0.15     1.81     8.88     0  02:17        1.44
  YS02001920           JUNCTION     0.23     2.14     9.15     0  02:17        1.52
  YS02001923           JUNCTION     0.12     2.03     9.29     0  02:17        1.27
  YS02001926           JUNCTION     0.16     1.90     9.35     0  02:17        1.10
  YS02001929           JUNCTION     0.09     1.78     9.47     0  02:17        0.85
  YS02006553           JUNCTION     0.69     2.04     8.33     0  02:25        1.97
  YS02006556           JUNCTION     0.66     2.11     8.43     0  02:25        1.95
  YS02006558           JUNCTION     0.70     2.19     8.46     0  02:25        1.99
  YS02006561           JUNCTION     0.15     1.35     8.01     0  02:25        1.09
  YS02163301           JUNCTION     0.50     1.93     8.44     0  02:18        1.89
  YS02163601           JUNCTION     0.59     2.03     8.43     0  02:18        2.00
  YS02164001           JUNCTION     0.52     1.95     8.41     0  02:18        1.92
  YSB1154              JUNCTION     0.43     1.93    10.99     0  02:13        1.91
  YSB1171              JUNCTION     0.58     1.95    10.85     0  02:13        1.95
  YSB1174              JUNCTION     0.38     1.80    10.91     0  02:24        1.80
  YSB6556              JUNCTION     0.33     1.78    10.95     0  02:13        1.74
  CC-1                 OUTFALL      0.00     0.00     0.00     0  00:00        0.00
  CC-2                 OUTFALL      0.00     0.00     0.00     0  00:00        0.00
  JK-1                 OUTFALL      0.00     0.00     0.00     0  00:00        0.00
  JK-2                 OUTFALL      0.00     0.00     0.00     0  00:00        0.00
  WSC                  OUTFALL      0.30     0.52     1.19     0  02:28        0.52
  CC-storage           STORAGE      0.71     1.89     7.39     0  03:00        1.88
  JK-storage           STORAGE      0.48     5.80     6.60     0  02:25        5.80
  XR-storage           STORAGE      7.83     8.66     6.66     0  06:00        8.66
  
  
  *******************
  Node Inflow Summary
  *******************
  
  -------------------------------------------------------------------------------------------------
                                  Maximum  Maximum                  Lateral       Total        Flow
                                  Lateral    Total  Time of Max      Inflow      Inflow     Balance
                                   Inflow   Inflow   Occurrence      Volume      Volume       Error
  Node                 Type           LPS      LPS  days hr:min    10^6 ltr    10^6 ltr     Percent
  -------------------------------------------------------------------------------------------------
  HS02004478           JUNCTION      0.00  2303.59     0  02:22           0        7.76      -0.012
  HS02004479           JUNCTION      0.00   437.65     0  02:17           0       0.758       0.082
  HS02004480           JUNCTION      0.00  2072.55     0  02:15           0        5.77       0.033
  HS02004770           JUNCTION   1628.12  1628.12     0  02:25        2.42        2.63       0.101
  HS02004777           JUNCTION      0.03   717.72     0  02:12    0.000648        1.68       0.316
  HS02004785           JUNCTION      0.15   734.05     0  02:13     0.00324        1.68       0.030
  HS02004788           JUNCTION    592.66   855.35     0  02:13       0.928        2.61       0.003
  HS02004792           JUNCTION   1990.39  2813.12     0  02:25        3.12        5.73      -0.007
  HS02004799           JUNCTION    369.54  1721.26     0  02:15       0.528        5.19       0.049
  HS02004802           JUNCTION      0.00  1234.11     0  02:26           0        2.11       0.187
  HS02004807           JUNCTION    458.74  1561.37     0  02:25       0.646         2.2       0.177
  HS02004817           JUNCTION      0.60  1105.43     0  02:25       0.013        1.62       1.051
  HS02004824           JUNCTION    630.10  1103.76     0  02:25        1.14        1.79       0.031
  HS02004830           JUNCTION      0.15   589.07     0  02:14     0.00324        0.83       0.139
  HS02004837           JUNCTION    427.24   800.11     0  02:16        0.75        1.14       0.045
  HS02004842           JUNCTION      0.00   798.13     0  02:16           0       0.709       1.848
  HS02004848           JUNCTION    575.17  1068.84     0  02:16         1.1        1.65      -0.001
  HS02004852           JUNCTION      0.00  1066.03     0  02:16           0         1.5      -0.000
  HS02004856           JUNCTION    187.45  1131.17     0  02:16       0.267        1.77       0.038
  HS02004862           JUNCTION    265.81  1198.75     0  02:16       0.467        2.24      -0.004
  HS02004870           JUNCTION    250.20  1254.10     0  02:16       0.355        2.59       0.005
  HS02004876           JUNCTION    248.90  1483.58     0  02:25       0.366        2.96       0.023
  HS02004881           JUNCTION    134.67  1618.55     0  02:25       0.187        3.14      -0.005
  HS02004901           JUNCTION    387.29   652.06     0  02:25       0.542       0.851       0.175
  WS02001211           JUNCTION      7.35   203.79     0  03:10       0.159        4.02       0.829
  WS02001212           JUNCTION      0.00   210.78     0  03:11           0        3.98       0.392
  WS02001213           JUNCTION      0.00   216.34     0  03:11           0        3.97       0.483
  WS02003059           JUNCTION      0.00   222.31     0  03:11           0        3.96       0.865
  WS02003060           JUNCTION     16.53  1515.92     0  02:26       0.357        12.9       0.148
  WS02003066           JUNCTION      0.00  1311.98     0  02:25           0        8.63       0.033
  WS02003067           JUNCTION      0.00  1311.82     0  02:25           0        8.63       0.073
  WS02003069           JUNCTION      0.32  1515.34     0  02:26     0.00691        12.9       0.157
  WS02003072           JUNCTION      0.00  1514.65     0  02:26           0        12.9       0.206
  WS02003073           JUNCTION      1.82  1516.30     0  02:27      0.0393        12.9       0.229
  WS02004138           JUNCTION      0.00   190.00     0  00:29           0        3.88       0.081
  WS02004139           JUNCTION      0.32   191.57     0  00:29     0.00693        3.89       0.689
  WS02004401           JUNCTION      0.00  1313.13     0  02:25           0        8.79       0.166
  WS02004402           JUNCTION      0.00  1313.21     0  02:24           0        8.78       0.156
  WS02004403           JUNCTION      0.00  1313.82     0  02:25           0        8.76       0.147
  WS02004404           JUNCTION      0.16  1313.27     0  02:24      0.0035        8.75       0.125
  WS02004405           JUNCTION      0.04  1314.39     0  02:25    0.000823        8.75       0.165
  WS02004406           JUNCTION      0.00  1313.32     0  02:24           0        8.73       0.290
  WS02004407           JUNCTION      0.00  1313.13     0  02:25           0         8.7       0.037
  WS02004409           JUNCTION      0.00  1312.19     0  02:25           0        8.69       0.088
  WS02004410           JUNCTION      0.00  1311.70     0  02:25           0        8.69       0.112
  WS02004411           JUNCTION      0.00  1312.29     0  02:25           0        8.68       0.126
  WS02004412           JUNCTION      0.00  1311.67     0  02:25           0        8.67       0.148
  WS02004413           JUNCTION      0.00  1311.71     0  02:25           0        8.65       0.238
  WS02006109           JUNCTION      1.23  1308.01     0  00:00      0.0266        8.58       0.061
  WS02006110           JUNCTION      0.00  1123.23     0  02:37           0        8.31      -0.404
  WS02006111           JUNCTION      0.00  1176.04     0  00:00           0        8.34      -0.447
  WS02006112           JUNCTION    315.57  2307.30     0  00:00       0.445        8.82       0.027
  WS02006113           JUNCTION      0.00  1123.85     0  02:37           0         8.3      -0.523
  WS02006115           JUNCTION      0.00  2152.75     0  00:00           0         8.8       0.089
  WS02006116           JUNCTION      0.00  1313.70     0  02:25           0        8.79       0.060
  WS02006228           JUNCTION      0.00  1287.93     0  02:23           0        8.53       0.031
  WS02006229           JUNCTION      0.00  2304.26     0  02:22           0        10.6       0.100
  WS02006230           JUNCTION     10.28  1025.85     0  02:22       0.222        4.96       0.055
  WS02006231           JUNCTION      0.00   526.30     0  05:31           0        3.89       0.008
  WS02006232           JUNCTION      0.00   523.73     0  05:31           0        3.89       0.221
  WS02006234           JUNCTION      0.00   531.75     0  05:30           0        3.89      -0.078
  WS02006235           JUNCTION      0.00   537.41     0  05:30           0        3.84       0.153
  WS02006238           JUNCTION      0.00   415.13     0  02:18           0        3.58      -0.433
  WS02006239           JUNCTION      0.00   414.95     0  02:18           0        3.57      -0.352
  WS02006240           JUNCTION      0.00   414.71     0  02:18           0        3.56      -0.080
  WS02006242           JUNCTION      0.00   414.82     0  02:18           0        3.57       0.091
  WS02006243           JUNCTION      0.00   395.29     0  03:23           0        3.23      -0.391
  WS02006245           JUNCTION      0.00   421.29     0  03:23           0        3.25       0.517
  WS02006247           JUNCTION      0.00   423.20     0  03:23           0        3.25       0.068
  WS02006248           JUNCTION      0.00   444.42     0  03:22           0        3.47       0.007
  WS02006249           JUNCTION      0.00  1366.66     0  02:25           0        5.59       0.210
  WS02006251           JUNCTION      0.08  1653.37     0  02:25     0.00166        5.75      -0.031
  WS02006252           JUNCTION      0.00   400.00     0  00:30           0        2.61      -0.159
  WS02006253           JUNCTION     33.83  1653.38     0  02:25      0.0452        3.25       0.072
  WS02006256           JUNCTION      0.00   300.00     0  01:20           0       0.597      -0.140
  WS02006280           JUNCTION      0.00  2303.56     0  02:22           0        7.74      -0.007
  WS02006284           JUNCTION      0.10  2303.32     0  02:22     0.00207        7.74       0.019
  WS02006287           JUNCTION      0.00  2304.39     0  02:22           0        7.74       0.009
  WSF200               JUNCTION      0.00  1312.08     0  02:25           0        8.62       0.024
  YS02001580           JUNCTION      0.00    89.25     0  02:12           0     0.00399      -2.067
  YS02001583           JUNCTION      0.00   149.48     0  02:12           0      0.0152      -4.080
  YS02001586           JUNCTION    723.20   723.20     0  02:25        1.48        1.49       0.073
  YS02001590           JUNCTION      0.00   318.03     0  02:38           0        1.19      -0.015
  YS02001593           JUNCTION      0.00   318.06     0  02:32           0        1.19       0.012
  YS02001596           JUNCTION      0.00   317.98     0  02:29           0        1.19      -0.007
  YS02001600           JUNCTION      0.00   318.06     0  02:31           0        1.19       0.000
  YS02001601           JUNCTION   1282.98  1600.45     0  02:25        2.07        3.27       0.027
  YS02001602           JUNCTION      0.00   506.20     0  02:11           0        2.06       0.040
  YS02001605           JUNCTION      0.00   506.70     0  02:11           0        1.96       0.051
  YS02001607           JUNCTION      0.00   507.14     0  02:11           0        1.96       0.124
  YS02001610           JUNCTION      0.00   690.26     0  02:25           0        2.12       0.117
  YS02001613           JUNCTION      0.00   510.03     0  02:11           0        1.72       0.122
  YS02001616           JUNCTION      0.00   508.26     0  02:11           0        1.71       0.042
  YS02001619           JUNCTION   1289.24  1289.24     0  02:25        2.37        3.93       0.005
  YS02001622           JUNCTION      0.00   938.24     0  02:25           0        3.76       0.013
  YS02001625           JUNCTION      0.00  1329.62     0  02:25           0        3.91       0.369
  YS02001629           JUNCTION      0.00   933.31     0  02:16           0        3.15      -0.061
  YS02001633           JUNCTION    964.47  1391.68     0  02:16        1.51         4.5       0.088
  YS02001641           JUNCTION      0.00  1391.76     0  02:16           0        4.33       0.072
  YS02001644           JUNCTION    859.05  1806.66     0  02:16        1.31        5.64       0.065
  YS02001647           JUNCTION      0.00  1807.04     0  02:16           0        5.45       0.004
  YS02001649           JUNCTION      0.00  2109.09     0  02:16           0        6.64       0.008
  YS02001652           JUNCTION      0.00   840.11     0  02:25           0        1.19      -0.088
  YS02001655           JUNCTION      0.15   839.56     0  02:25     0.00332        1.19      -0.026
  YS02001658           JUNCTION      0.00   838.21     0  02:25           0        1.19      -0.023
  YS02001661           JUNCTION      0.00   826.72     0  02:25           0        1.19       0.022
  YS02001664           JUNCTION    831.16   831.16     0  02:25        1.19        1.19      -0.007
  YS02001745           JUNCTION    519.51   519.51     0  02:25       0.724       0.724       0.242
  YS02001748           JUNCTION      0.04   569.05     0  02:21    0.000972       0.725      -0.379
  YS02001751           JUNCTION      0.01   526.85     0  02:25    0.000238        0.73       0.136
  YS02001754           JUNCTION      0.26   528.06     0  02:25     0.00562       0.736      -0.182
  YS02001757           JUNCTION      0.00  3501.90     0  02:23           0        9.85       0.027
  YS02001759           JUNCTION    721.95  1420.15     0  02:23       0.999        2.47      -0.013
  YS02001762           JUNCTION      0.00   810.86     0  02:27           0        1.47       0.007
  YS02001765           JUNCTION      0.00   810.85     0  02:27           0        1.47       0.004
  YS02001767           JUNCTION      0.54   809.70     0  02:27      0.0116        1.47      -0.002
  YS02001770           JUNCTION   1035.86  1035.86     0  02:25        1.53        1.58      -0.010
  YS02001774           JUNCTION      0.00   349.55     0  02:25           0       0.146       0.744
  YS02001779           JUNCTION      0.01   349.55     0  02:25    0.000108      0.0937      -0.427
  YS02001783           JUNCTION      0.00  1162.10     0  02:22           0        3.51       0.007
  YS02001784           JUNCTION      1.06  1163.09     0  02:22      0.0229        3.53       0.018
  YS02001786           JUNCTION      0.06  1162.92     0  02:21     0.00122        3.53       0.019
  YS02001788           JUNCTION      0.07  1163.06     0  02:21     0.00153        3.53       0.009
  YS02001790           JUNCTION      0.15  1177.87     0  02:24     0.00335        3.54       0.010
  YS02001791           JUNCTION      0.00  1287.06     0  02:21           0        3.54      -0.008
  YS02001793           JUNCTION      0.00  1257.81     0  02:24           0        3.54      -0.019
  YS02001882           JUNCTION      0.00    35.98     0  02:13           0      0.0124       4.782
  YS02001884           JUNCTION      0.00    66.39     0  02:13           0      0.0481       5.530
  YS02001887           JUNCTION    761.20   761.20     0  02:25        1.05        1.08       0.426
  YS02001890           JUNCTION      0.00   761.84     0  02:25           0        1.04       0.485
  YS02001895           JUNCTION      0.00   518.67     0  02:24           0        0.97       0.153
  YS02001898           JUNCTION      0.00   518.33     0  02:25           0       0.969       0.037
  YS02001901           JUNCTION      0.00   518.53     0  02:25           0       0.971       0.339
  YS02001904           JUNCTION      0.00   518.34     0  02:26           0       0.975       0.281
  YS02001907           JUNCTION      0.00  1897.95     0  02:25           0        3.24       0.533
  YS02001910           JUNCTION      0.00  1380.47     0  02:25           0        2.27       0.315
  YS02001915           JUNCTION    929.85  1380.86     0  02:25        1.45        2.31       0.073
  YS02001918           JUNCTION      0.00   467.49     0  02:25           0       0.879       0.008
  YS02001920           JUNCTION      2.87   466.53     0  02:25       0.062       0.865       0.123
  YS02001923           JUNCTION      0.04   461.54     0  02:25    0.000814       0.789      -0.101
  YS02001926           JUNCTION      0.05   459.82     0  02:25     0.00113       0.771       0.110
  YS02001929           JUNCTION    455.28   455.28     0  02:25       0.762       0.763      -0.064
  YS02006553           JUNCTION      0.00   715.17     0  02:40           0        2.03       0.579
  YS02006556           JUNCTION      0.00   715.83     0  02:40           0        2.04       0.383
  YS02006558           JUNCTION   1056.79  1162.78     0  02:22        1.53        3.54       0.102
  YS02006561           JUNCTION      0.00  1161.92     0  02:22           0        3.51      -0.002
  YS02163301           JUNCTION      0.00   933.07     0  02:16           0        3.15       0.057
  YS02163601           JUNCTION      0.11  1391.72     0  02:16     0.00238        4.33       0.120
  YS02164001           JUNCTION      0.00  1391.57     0  02:16           0        4.33       0.055
  YSB1154              JUNCTION    427.50   427.50     0  02:25       0.631       0.632       0.239
  YSB1171              JUNCTION      0.00  1020.05     0  02:24           0        1.21       0.497
  YSB1174              JUNCTION    357.42   357.42     0  02:25       0.481       0.482       0.261
  YSB6556              JUNCTION      0.00   427.87     0  02:25           0       0.632       0.167
  CC-1                 OUTFALL       0.00   683.00     0  00:00           0        6.76       0.000
  CC-2                 OUTFALL       0.00   683.00     0  00:00           0        3.12       0.000
  JK-1                 OUTFALL       0.00  1000.00     0  00:00           0        2.49       0.000
  JK-2                 OUTFALL       0.00  1000.00     0  00:00           0       0.716       0.000
  WSC                  OUTFALL       0.00  1515.93     0  02:28           0        12.8       0.000
  CC-storage           STORAGE       0.00  3500.58     0  02:23           0        12.1      -2.637
  JK-storage           STORAGE       0.00  1324.51     0  02:20           0        3.69     -18.715
  XR-storage           STORAGE     200.00   200.00     0  00:00        4.32        4.92       0.001
  
  
  **********************
  Node Surcharge Summary
  **********************
  
  Surcharging occurs when water rises above the top of the highest conduit.
  ---------------------------------------------------------------------
                                               Max. Height   Min. Depth
                                   Hours       Above Crown    Below Rim
  Node                 Type      Surcharged         Meters       Meters
  ---------------------------------------------------------------------
  HS02004478           JUNCTION        0.44          0.665        0.275
  HS02004479           JUNCTION        0.56          0.896        0.154
  HS02004480           JUNCTION        0.59          0.962        0.138
  HS02004770           JUNCTION        0.51          0.720        0.000
  HS02004777           JUNCTION        0.51          0.780        0.000
  HS02004785           JUNCTION        0.47          0.790        0.000
  HS02004788           JUNCTION        0.46          0.720        0.000
  HS02004792           JUNCTION        0.56          0.900        0.000
  HS02004799           JUNCTION        0.68          1.060        0.000
  HS02004802           JUNCTION        0.60          1.090        0.120
  HS02004807           JUNCTION        0.59          1.220        0.000
  HS02004817           JUNCTION        1.08          1.702        0.038
  HS02004824           JUNCTION        0.46          1.292        0.018
  HS02004830           JUNCTION        0.44          1.306        0.024
  HS02004837           JUNCTION        0.40          1.258        0.082
  HS02004842           JUNCTION        0.52          1.520        0.000
  HS02004848           JUNCTION        0.35          1.346        0.024
  HS02004852           JUNCTION        0.38          1.420        0.000
  HS02004856           JUNCTION        0.35          1.300        0.000
  HS02004862           JUNCTION        0.39          1.300        0.000
  HS02004870           JUNCTION        0.41          1.400        0.000
  HS02004876           JUNCTION        0.46          1.369        0.191
  HS02004881           JUNCTION        0.43          1.292        0.158
  HS02004901           JUNCTION        0.51          0.720        0.000
  WS02004401           JUNCTION        1.36          0.882        0.778
  WS02004402           JUNCTION        1.37          0.819        0.921
  WS02004403           JUNCTION        1.38          0.741        1.289
  WS02004404           JUNCTION        1.58          0.756        2.024
  WS02004405           JUNCTION        1.51          0.704        2.096
  WS02004406           JUNCTION        1.47          0.585        1.865
  WS02004409           JUNCTION        0.93          0.399        1.961
  WS02004410           JUNCTION        0.87          0.304        2.236
  WS02004411           JUNCTION        0.78          0.216        2.314
  WS02004412           JUNCTION        0.70          0.112        2.198
  WS02004413           JUNCTION        1.15          0.150        2.050
  WS02006109           JUNCTION        2.07          1.820        0.000
  WS02006110           JUNCTION        1.75          1.488        0.362
  WS02006111           JUNCTION        1.09          0.953        0.917
  WS02006112           JUNCTION        1.84          1.680        0.000
  WS02006113           JUNCTION        1.10          1.035        0.895
  WS02006115           JUNCTION        1.30          0.968        1.282
  WS02006116           JUNCTION        1.31          0.914        1.376
  WS02006228           JUNCTION        2.04          2.197        0.003
  WS02006229           JUNCTION        0.82          1.041        0.029
  WS02006230           JUNCTION        1.60          1.570        0.000
  WS02006231           JUNCTION        1.63          1.479        0.051
  WS02006232           JUNCTION        1.99          1.480        0.000
  WS02006234           JUNCTION        1.71          1.240        0.000
  WS02006235           JUNCTION        1.76          1.265        0.025
  WS02006238           JUNCTION        1.84          1.270        0.160
  WS02006239           JUNCTION        1.67          1.105        0.185
  WS02006240           JUNCTION        1.61          0.953        0.437
  WS02006242           JUNCTION        1.80          0.820        0.000
  WS02006243           JUNCTION        1.54          0.666        0.104
  WS02006245           JUNCTION        1.50          0.563        0.287
  WS02006247           JUNCTION        1.52          0.518        0.242
  WS02006248           JUNCTION        1.44          0.380        0.000
  WS02006249           JUNCTION        1.47          0.390        0.000
  WS02006251           JUNCTION        1.23          1.180        0.000
  WS02006252           JUNCTION        2.23          1.100        0.000
  WS02006253           JUNCTION        1.28          2.280        0.200
  WS02006256           JUNCTION        5.28          2.050        0.000
  WS02006280           JUNCTION        0.69          0.692        0.088
  WS02006284           JUNCTION        0.62          0.666        0.134
  WS02006287           JUNCTION        0.53          0.739        0.151
  YS02001580           JUNCTION        0.55          0.450        0.000
  YS02001583           JUNCTION        0.55          0.500        0.000
  YS02001586           JUNCTION        0.66          0.510        0.000
  YS02001590           JUNCTION        0.72          0.731        0.019
  YS02001593           JUNCTION        0.72          0.694        0.146
  YS02001596           JUNCTION        0.84          0.947        0.123
  YS02001600           JUNCTION        1.00          1.190        0.000
  YS02001601           JUNCTION        1.32          1.440        0.000
  YS02001602           JUNCTION        1.23          1.270        0.000
  YS02001605           JUNCTION        1.19          1.180        0.000
  YS02001607           JUNCTION        0.71          0.646        0.034
  YS02001610           JUNCTION        0.74          0.680        0.000
  YS02001613           JUNCTION        0.70          0.674        0.026
  YS02001616           JUNCTION        0.66          0.601        0.009
  YS02001619           JUNCTION        0.65          0.585        0.025
  YS02001622           JUNCTION        0.65          0.564        0.056
  YS02001625           JUNCTION        0.89          0.780        0.000
  YS02001629           JUNCTION        0.60          0.470        0.000
  YS02001633           JUNCTION        0.96          1.000        0.060
  YS02001641           JUNCTION        0.93          0.946        0.154
  YS02001644           JUNCTION        0.91          0.920        0.000
  YS02001647           JUNCTION        0.54          0.804        0.096
  YS02001649           JUNCTION        0.85          1.047        0.003
  YS02001652           JUNCTION        0.46          1.091        0.039
  YS02001655           JUNCTION        0.31          0.934        0.266
  YS02001658           JUNCTION        0.17          1.165        0.135
  YS02001748           JUNCTION        0.07          0.418        0.772
  YS02001751           JUNCTION        0.19          0.526        0.674
  YS02001754           JUNCTION        0.38          0.647        0.503
  YS02001757           JUNCTION        1.15          0.957        0.253
  YS02001759           JUNCTION        0.84          0.935        0.275
  YS02001762           JUNCTION        0.80          0.939        0.211
  YS02001765           JUNCTION        0.61          0.916        0.184
  YS02001767           JUNCTION        0.51          0.897        0.133
  YS02001770           JUNCTION        0.48          0.901        0.019
  YS02001774           JUNCTION        0.73          0.985        0.065
  YS02001779           JUNCTION        0.35          0.680        0.000
  YS02001783           JUNCTION        0.62          0.998        0.602
  YS02001784           JUNCTION        0.61          0.987        0.503
  YS02001786           JUNCTION        0.58          0.838        0.592
  YS02001788           JUNCTION        0.42          0.781        0.699
  YS02001790           JUNCTION        0.43          0.846        0.311
  YS02001791           JUNCTION        0.43          0.857        1.063
  YS02001793           JUNCTION        0.46          0.912        1.688
  YS02001882           JUNCTION        0.49          0.639        0.191
  YS02001884           JUNCTION        0.50          0.682        0.188
  YS02001887           JUNCTION        0.53          0.770        0.180
  YS02001890           JUNCTION        0.55          0.760        0.000
  YS02001895           JUNCTION        0.48          0.568        0.182
  YS02001898           JUNCTION        0.47          0.533        0.207
  YS02001901           JUNCTION        0.52          0.676        0.194
  YS02001904           JUNCTION        0.51          0.637        0.213
  YS02001907           JUNCTION        0.74          0.950        0.000
  YS02001910           JUNCTION        0.57          0.964        0.136
  YS02001915           JUNCTION        0.48          0.910        0.090
  YS02001918           JUNCTION        0.39          0.810        0.000
  YS02001920           JUNCTION        0.40          1.140        0.000
  YS02001923           JUNCTION        0.06          0.820        0.000
  YS02001926           JUNCTION        0.11          0.900        0.000
  YS02001929           JUNCTION        0.01          0.780        0.000
  YS02006553           JUNCTION        0.75          1.044        0.146
  YS02006556           JUNCTION        0.66          1.075        0.275
  YS02006558           JUNCTION        0.64          1.092        0.308
  YS02006561           JUNCTION        0.41          0.555        0.595
  YS02163301           JUNCTION        0.93          0.926        0.104
  YS02163601           JUNCTION        1.02          1.032        0.048
  YS02164001           JUNCTION        0.92          0.952        0.148
  YSB1154              JUNCTION        0.78          1.229        0.171
  YSB1171              JUNCTION        0.78          1.100        0.000
  YSB1174              JUNCTION        0.72          1.099        0.151
  YSB6556              JUNCTION        0.66          1.082        0.018
  
  
  *********************
  Node Flooding Summary
  *********************
  
  Flooding refers to all water that overflows a node, whether it ponds or not.
  --------------------------------------------------------------------------
                                                             Total   Maximum
                                 Maximum   Time of Max       Flood    Ponded
                        Hours       Rate    Occurrence      Volume     Depth
  Node                 Flooded       LPS   days hr:min    10^6 ltr    Meters
  --------------------------------------------------------------------------
  HS02004770              0.36   1131.27      0  02:25       0.635     0.000
  HS02004777              0.01     21.08      0  02:13       0.000     0.000
  HS02004785              0.01     33.44      0  02:13       0.000     0.000
  HS02004788              0.01    241.03      0  02:13       0.001     0.000
  HS02004792              0.35   1668.42      0  02:25       1.064     0.000
  HS02004799              0.20    209.16      0  02:25       0.078     0.000
  HS02004807              0.07    328.99      0  02:25       0.042     0.000
  HS02004842              0.01     60.57      0  02:17       0.000     0.000
  HS02004852              0.01     87.08      0  02:17       0.000     0.000
  HS02004856              0.01    339.26      0  02:17       0.002     0.000
  HS02004862              0.01    263.12      0  02:16       0.001     0.000
  HS02004870              0.01     88.08      0  02:16       0.000     0.000
  HS02004901              0.41    651.67      0  02:25       0.641     0.000
  WS02006109              0.39    290.09      0  02:25       0.237     0.000
  WS02006112              0.01   1153.65      0  00:00       0.035     0.000
  WS02006230              0.63    573.20      0  02:22       0.873     0.000
  WS02006232              0.16      0.69      0  02:33       0.000     0.000
  WS02006234              0.66    128.46      0  02:15       0.167     0.000
  WS02006242              0.77    137.22      0  02:16       0.323     0.000
  WS02006248              1.02    338.98      0  02:30       1.079     0.000
  WS02006249              1.29   1305.78      0  02:25       2.972     0.000
  WS02006251              0.01     38.48      0  02:16       0.000     0.000
  WS02006252              0.26    334.15      0  03:20       0.117     0.000
  WS02006256              0.37    297.15      0  02:50       0.236     0.000
  YS02001580              0.01     65.57      0  02:12       0.000     0.000
  YS02001583              0.01     54.33      0  02:12       0.000     0.000
  YS02001586              0.43    405.26      0  02:25       0.289     0.000
  YS02001600              0.01      1.04      0  02:12       0.000     0.000
  YS02001601              0.59   1201.31      0  02:25       1.206     0.000
  YS02001602              0.49     62.03      0  02:36       0.099     0.000
  YS02001605              0.01      3.44      0  02:12       0.000     0.000
  YS02001610              0.42    689.87      0  02:25       0.558     0.000
  YS02001625              0.39   1329.30      0  02:25       0.907     0.000
  YS02001629              0.10     94.65      0  02:21       0.016     0.000
  YS02001644              0.14    670.49      0  02:25       0.174     0.000
  YS02001779              0.11    348.97      0  02:25       0.069     0.000
  YS02001890              0.16    245.49      0  02:25       0.062     0.000
  YS02001907              0.34   1848.48      0  02:25       1.201     0.000
  YS02001918              0.01     83.01      0  02:17       0.001     0.000
  YS02001920              0.01     53.32      0  02:17       0.000     0.000
  YS02001923              0.01    268.00      0  02:17       0.000     0.000
  YS02001926              0.01     55.56      0  02:17       0.000     0.000
  YS02001929              0.01    291.89      0  02:17       0.001     0.000
  YSB1171                 0.26   1020.00      0  02:25       0.538     0.000
  JK-storage              0.24   1051.18      0  02:25       0.738     0.000
  
  
  **********************
  Storage Volume Summary
  **********************
  
  --------------------------------------------------------------------------------------------------
                         Average     Avg  Evap Exfil       Maximum     Max    Time of Max    Maximum
                          Volume    Pcnt  Pcnt  Pcnt        Volume    Pcnt     Occurrence    Outflow
  Storage Unit           1000 m3    Full  Loss  Loss       1000 m3    Full    days hr:min        LPS
  --------------------------------------------------------------------------------------------------
  CC-storage               1.969      31     0     0         5.259      82       0  03:00    1766.00
  JK-storage               0.024       8     0     0         0.291     100       0  02:25    2300.00
  XR-storage               0.939      65     0     0         1.039      72       0  06:00     190.00
  
  
  ***********************
  Outfall Loading Summary
  ***********************
  
  -----------------------------------------------------------
                         Flow       Avg       Max       Total
                         Freq      Flow      Flow      Volume
  Outfall Node           Pcnt       LPS       LPS    10^6 ltr
  -----------------------------------------------------------
  CC-1                  70.89    501.34    683.00       6.760
  CC-2                  20.48    605.30    683.00       3.120
  JK-1                  51.62    230.96   1000.00       2.488
  JK-2                  31.13    132.05   1000.00       0.716
  WSC                   99.99    623.73   1515.93      12.845
  -----------------------------------------------------------
  System                54.82   2093.38   3451.46      25.929
  
  
  ********************
  Link Flow Summary
  ********************
  
  -----------------------------------------------------------------------------
                                 Maximum  Time of Max   Maximum    Max/    Max/
                                  |Flow|   Occurrence   |Veloc|    Full    Full
  Link                 Type          LPS  days hr:min     m/sec    Flow   Depth
  -----------------------------------------------------------------------------
  1                    CONDUIT   1515.93     0  02:28      3.70    0.53    0.52
  HS02004478WS02006287 CONDUIT   2304.39     0  02:22      2.61    0.65    1.00
  HS02004479HS02004480 CONDUIT    438.83     0  02:17      0.63    0.42    1.00
  HS02004480HS02004478 CONDUIT   2071.87     0  02:15      2.96    8.73    1.00
  HS02004770HS02004777 CONDUIT    717.69     0  02:12      1.03    1.31    1.00
  HS02004777HS02004785 CONDUIT    733.90     0  02:13      1.11    0.90    1.00
  HS02004785HS02004788 CONDUIT    644.87     0  02:13      1.35    4.86    1.00
  HS02004788HS02004792 CONDUIT    841.50     0  02:14      1.44    0.56    1.00
  HS02004792HS02004799 CONDUIT   1569.77     0  02:14      2.24    0.96    1.00
  HS02004799HS02004480 CONDUIT   1720.85     0  02:15      2.46    2.17    1.00
  HS02004802HS02004478 CONDUIT   1234.15     0  02:26      1.76    1.09    1.00
  HS02004807HS02004802 CONDUIT   1234.11     0  02:26      1.76    2.36    1.00
  HS02004817HS02004807 CONDUIT   1105.93     0  02:25      1.58    0.65    1.00
  HS02004817HS02004824 CONDUIT   1104.83     0  02:25      1.58    0.50    1.00
  HS02004824HS02004830 CONDUIT    588.92     0  02:14      0.85    0.77    1.00
  HS02004830HS02004837 CONDUIT    596.00     0  02:14      0.94    0.59    1.00
  HS02004837HS02004842 CONDUIT    798.13     0  02:16      1.14    0.48    1.00
  HS02004842HS02004848 CONDUIT    798.54     0  02:16      1.21    0.47    1.00
  HS02004848HS02004852 CONDUIT   1066.03     0  02:16      1.56    1.20    1.00
  HS02004852HS02004856 CONDUIT   1029.77     0  02:16      1.47    1.18    1.00
  HS02004856HS02004862 CONDUIT   1071.22     0  02:16      1.69    1.07    1.00
  HS02004862HS02004870 CONDUIT   1126.45     0  02:16      1.92    1.22    1.00
  HS02004870HS02004876 CONDUIT   1235.03     0  02:25      1.92    0.82    1.00
  HS02004876HS02004881 CONDUIT   1484.10     0  02:25      2.56   15.79    1.00
  HS02004881HS02006253 CONDUIT   1619.75     0  02:25      2.31    0.32    1.00
  HS02004901HS02004770 CONDUIT    265.79     0  02:35      0.38    1.00    1.00
  WS02001211WS02001212 CONDUIT    210.78     0  03:11      0.54    0.16    0.69
  WS02001212WS02001213 CONDUIT    216.34     0  03:11      1.04    0.33    0.56
  WS02001213WS02003059 CONDUIT    222.31     0  03:11      0.47    0.37    0.90
  WS02003059WS02003060 CONDUIT    230.49     0  03:11      0.67    0.15    0.82
  WS02003060WS02003069 CONDUIT   1515.02     0  02:26      2.09    0.59    0.61
  WS02003066WSF200     CONDUIT   1312.08     0  02:25      3.25    0.22    0.39
  WS02003067WS02003066 CONDUIT   1311.98     0  02:25      2.01    0.42    0.56
  WS02003069WS02003072 CONDUIT   1514.65     0  02:26      1.90    0.73    0.66
  WS02003072WS02003073 CONDUIT   1514.48     0  02:27      2.06    3.27    0.62
  WS02004138WS02004139 CONDUIT    191.25     0  00:29      2.15    0.04    0.42
  WS02004139WS02001211 CONDUIT    196.44     0  03:10      0.55    0.25    0.61
  WS02004401WS02004402 CONDUIT   1313.21     0  02:24      2.07    1.58    1.00
  WS02004402WS02004403 CONDUIT   1313.82     0  02:25      1.84    1.89    1.00
  WS02004403WS02004404 CONDUIT   1313.10     0  02:24      1.67    0.95    1.00
  WS02004404WS02004405 CONDUIT   1314.35     0  02:25      1.85   12.88    1.00
  WS02004405WS02004406 CONDUIT   1313.32     0  02:24      1.73    2.59    1.00
  WS02004406WS02004407 CONDUIT   1313.13     0  02:25      1.71    0.59    0.97
  WS02004407WS02004409 CONDUIT   1312.19     0  02:25      1.73    0.46    0.97
  WS02004409WS02004410 CONDUIT   1311.70     0  02:25      1.67    1.70    1.00
  WS02004410WS02004411 CONDUIT   1312.29     0  02:25      1.67    1.79    1.00
  WS02004411WS02004412 CONDUIT   1311.67     0  02:25      1.67    1.86    1.00
  WS02004412WS02004413 CONDUIT   1311.71     0  02:25      1.67    0.88    1.00
  WS02004413WS02003067 CONDUIT   1311.82     0  02:25      2.03    0.56    0.77
  WS02006109WS02006110 CONDUIT   1306.78     0  00:00      3.15    2.51    1.00
  WS02006110WS02006113 CONDUIT   1123.85     0  02:37      2.24    1.02    1.00
  WS02006111WS02006112 CONDUIT   2307.30     0  00:00      9.18    1.10    1.00
  WS02006112WS02006115 CONDUIT   2152.75     0  00:00      2.85    1.27    1.00
  WS02006113WS02006111 CONDUIT   1176.04     0  00:00      2.66    1.41    1.00
  WS02006115WS02006116 CONDUIT   1313.70     0  02:25      1.81    1.69    1.00
  WS02006116WS02004401 CONDUIT   1313.13     0  02:25      2.21    1.81    1.00
  WS02006228WS02006109 CONDUIT   1287.82     0  02:22      2.56    5.63    1.00
  WS02006229WS02006228 CONDUIT   1287.93     0  02:23      2.56    4.27    1.00
  WS02006230WS02006229 CONDUIT   1015.57     0  02:22      2.64   22.60    1.00
  WS02006231WS02006230 CONDUIT    514.70     0  05:31      1.49    7.81    1.00
  WS02006232WS02006231 CONDUIT    526.30     0  05:31      1.40    1.10    1.00
  WS02006234WS02006232 CONDUIT    523.73     0  05:31      1.39    1.06    1.00
  WS02006235WS02006234 CONDUIT    531.75     0  05:30      1.38    5.61    1.00
  WS02006238WS02006235 CONDUIT    415.13     0  02:18      1.64    0.93    1.00
  WS02006239WS02006238 CONDUIT    414.95     0  02:18      1.24    1.33    1.00
  WS02006240WS02006239 CONDUIT    414.71     0  02:18      1.31    1.31    1.00
  WS02006242WS02006240 CONDUIT    414.82     0  02:18      1.15    1.65    1.00
  WS02006243WS02006242 CONDUIT    385.55     0  03:30      1.39    0.82    1.00
  WS02006245WS02006243 CONDUIT    395.29     0  03:23      1.38    1.17    1.00
  WS02006247WS02006245 CONDUIT    421.29     0  03:23      1.37    3.34    1.00
  WS02006248WS02006247 CONDUIT    423.20     0  03:23      1.44    0.92    1.00
  WS02006249WS02006248 CONDUIT    444.42     0  03:22      1.39    2.43    1.00
  WS02006251WS02006249 CONDUIT   1366.66     0  02:25      3.55    3.94    1.00
  WS02006252WS02006251 CONDUIT    409.43     0  01:50      5.03    1.50    1.00
  WS02006253WS02006251 CONDUIT   1653.30     0  02:25      4.30    4.96    1.00
  WS02006256WS02006235 CONDUIT    221.84     0  05:30      3.14    2.35    1.00
  WS02006280WS02006229 CONDUIT   2304.26     0  02:22      4.05    0.49    1.00
  WS02006284WS02006280 CONDUIT   2303.56     0  02:22      2.97    0.96    1.00
  WS02006287WS02006284 CONDUIT   2303.22     0  02:22      2.93    1.07    1.00
  WSF200WS02003060     CONDUIT   1312.10     0  02:26      2.29    0.29    0.51
  YS02001580YS02001583 CONDUIT     89.25     0  02:12      0.61    0.35    1.00
  YS02001583YS02001586 CONDUIT    149.48     0  02:12      0.63    0.23    1.00
  YS02001586YS02001590 CONDUIT    318.03     0  02:38      1.25    0.56    1.00
  YS02001590YS02001593 CONDUIT    318.06     0  02:32      1.12    2.00    1.00
  YS02001593YS02001596 CONDUIT    317.98     0  02:29      1.67    0.50    1.00
  YS02001596YS02001600 CONDUIT    318.06     0  02:31      1.12    0.62    1.00
  YS02001600YS02001601 CONDUIT    317.86     0  02:38      1.12    0.55    1.00
  YS02001601YS02001602 CONDUIT    506.20     0  02:11      1.79    1.83    1.00
  YS02001602YS02001605 CONDUIT    506.70     0  02:11      1.79   10.72    1.00
  YS02001605YS02001607 CONDUIT    507.14     0  02:11      1.79    2.78    1.00
  YS02001607YS02001610 CONDUIT    509.81     0  02:11      0.65    0.48    1.00
  YS02001610YS02001613 CONDUIT    510.03     0  02:11      0.65    0.59    1.00
  YS02001613YS02001616 CONDUIT    508.26     0  02:11      0.65    0.44    1.00
  YS02001616YS02001619 CONDUIT    501.69     0  02:12      0.66    0.87    1.00
  YS02001619YS02001622 CONDUIT    938.24     0  02:25      1.19    1.38    1.00
  YS02001622YS02001625 CONDUIT    938.19     0  02:25      1.19    0.50    1.00
  YS02001625YS02001629 CONDUIT    933.31     0  02:16      1.19    0.44    1.00
  YS02001629YS02163301 CONDUIT    933.07     0  02:16      1.19    1.15    1.00
  YS02001633YS02163601 CONDUIT   1391.61     0  02:16      1.77    1.46    1.00
  YS02001641YS02001644 CONDUIT   1391.02     0  02:16      1.77    4.50    1.00
  YS02001644YS02001647 CONDUIT   1807.04     0  02:16      2.30    1.06    1.00
  YS02001647YS02001649 CONDUIT   1824.31     0  02:16      2.35    0.96    1.00
  YS02001649YS02001757 CONDUIT   2103.25     0  02:16      2.68    1.28    1.00
  YS02001652YS02001649 CONDUIT    841.37     0  02:25      1.07    0.42    1.00
  YS02001655YS02001652 CONDUIT    840.11     0  02:25      1.25    0.41    1.00
  YS02001658YS02001655 CONDUIT    839.41     0  02:25      1.87    0.36    1.00
  YS02001661YS02001658 CONDUIT    838.21     0  02:25      2.32    0.33    0.98
  YS02001664YS02001661 CONDUIT    826.72     0  02:25      2.30    0.26    0.71
  YS02001745YS02001748 CONDUIT    569.01     0  02:21      2.20    0.22    0.85
  YS02001748YS02001751 CONDUIT    526.84     0  02:25      1.67    0.27    1.00
  YS02001751YS02001754 CONDUIT    527.80     0  02:25      1.36    0.25    1.00
  YS02001754YS02001757 CONDUIT    527.29     0  02:25      0.67    0.21    1.00
  YS02001757CaochengTiaoxuchi CONDUIT   3500.58     0  02:23      5.52    1.52    1.00
  YS02001759YS02001757 CONDUIT   1420.47     0  02:23      1.81    1.01    1.00
  YS02001762YS02001759 CONDUIT    812.06     0  02:27      1.03    0.94    1.00
  YS02001765YS02001762 CONDUIT    810.86     0  02:27      1.03    0.76    1.00
  YS02001767YS02001765 CONDUIT    810.85     0  02:27      1.03    1.02    1.00
  YS02001770YS02001767 CONDUIT    809.17     0  02:27      1.03    3.21    1.00
  YS02001774YS02001770 CONDUIT    349.55     0  02:25      0.45    0.22    1.00
  YS02001779YS02001774 CONDUIT    349.55     0  02:25      0.45    0.18    1.00
  YS02001783YS02001784 CONDUIT   1162.03     0  02:22      2.31    1.60    1.00
  YS02001784YS02001785 CONDUIT   1162.87     0  02:21      2.31    2.71    1.00
  YS02001786YS02001788 CONDUIT   1162.99     0  02:21      2.48    2.24    1.00
  YS02001788YS02001790 CONDUIT   1177.71     0  02:24      2.72    0.87    1.00
  YS02001790YS02001791 CONDUIT   1287.06     0  02:21      3.42    1.40    1.00
  YS02001791YS02001793 CONDUIT   1257.81     0  02:24      6.73    0.54    1.00
  YS02001793JiankangQianchi CONDUIT   1324.51     0  02:20     24.45    0.11    1.00
  YS02001882YS02001884 CONDUIT     35.98     0  02:13      0.09    0.04    1.00
  YS02001884YS02001887 CONDUIT     66.39     0  02:13      0.08    0.09    1.00
  YS02001887YS02001890 CONDUIT    761.84     0  02:25      0.97    1.30    1.00
  YS02001890YS02001895 CONDUIT    518.67     0  02:24      0.66    0.24    1.00
  YS02001895YS02001898 CONDUIT    518.33     0  02:25      0.66    0.90    1.00
  YS02001898YS02001901 CONDUIT    518.53     0  02:25      0.66    0.33    1.00
  YS02001901YS02001904 CONDUIT    518.34     0  02:26      0.66    0.80    1.00
  YS02001904YS02001907 CONDUIT    518.53     0  02:24      0.66    0.18    1.00
  YS02001907YS02006553 CONDUIT    715.17     0  02:40      0.79    0.84    1.00
  YS02001910YS02001907 CONDUIT   1380.54     0  02:25      1.76    0.78    1.00
  YS02001915YS02001910 CONDUIT   1380.47     0  02:25      1.76    0.69    1.00
  YS02001918YS02001915 CONDUIT    467.81     0  02:25      0.60    0.26    1.00
  YS02001920YS02001918 CONDUIT    467.49     0  02:25      0.63    0.45    1.00
  YS02001923YS02001920 CONDUIT    463.66     0  02:25      0.68    0.21    1.00
  YS02001926YS02001923 CONDUIT    461.50     0  02:25      0.94    0.66    1.00
  YS02001929YS02001926 CONDUIT    459.76     0  02:25      1.09    0.22    1.00
  YS02006553YS02006556 CONDUIT    715.83     0  02:40      0.91    0.61    1.00
  YS02006556YS02006558 CONDUIT    715.77     0  02:40      0.91    0.57    1.00
  YS02006558YS02006561 CONDUIT   1161.92     0  02:22      4.11    2.57    1.00
  YS02006561YS02001783 CONDUIT   1162.10     0  02:22      2.31    0.60    1.00
  YS02163301YS02001633 CONDUIT    932.45     0  02:16      1.19    0.88    1.00
  YS02163601YS02164001 CONDUIT   1391.57     0  02:16      1.77    1.23    1.00
  YS02164001YS02001641 CONDUIT   1391.76     0  02:16      1.77    1.90    1.00
  YSB1154YSB6556       CONDUIT    427.87     0  02:25      1.11    0.77    1.00
  YSB1171HS02004479    CONDUIT    437.65     0  02:17      0.87    0.29    1.00
  YSB1174YSB1171       CONDUIT    357.31     0  02:25      0.93    0.55    1.00
  YSB6556YSB1171       CONDUIT    428.36     0  02:24      1.11    0.44    1.00
  CC-R1                PUMP       683.00     0  00:00              1.00
  CC-R2                PUMP       683.00     0  00:00              1.00
  CC-S1                PUMP       200.00     0  00:30              1.00
  CC-S2                PUMP       200.00     0  00:30              1.00
  JK-R1                PUMP      1000.00     0  00:00              1.00
  JK-R2                PUMP      1000.00     0  00:00              1.00
  JK-S                 PUMP       300.00     0  01:20              1.00
  XR-1                 PUMP        95.00     0  00:10              1.00
  XR-2                 PUMP        95.00     0  00:29              1.00
  XR-3                 PUMP         0.00     0  00:00              0.00
  XR-4                 PUMP         0.00     0  00:00              0.00
  
  
  ***************************
  Flow Classification Summary
  ***************************
  
  -------------------------------------------------------------------------------------
                      Adjusted    ---------- Fraction of Time in Flow Class ---------- 
                       /Actual         Up    Down  Sub   Sup   Up    Down  Norm  Inlet 
  Conduit               Length    Dry  Dry   Dry   Crit  Crit  Crit  Crit  Ltd   Ctrl  
  -------------------------------------------------------------------------------------
  1                       1.00   0.00  0.00  0.00  0.00  1.00  0.00  0.00  0.47  0.00
  HS02004478WS02006287    1.00   0.10  0.00  0.00  0.61  0.30  0.00  0.00  0.47  0.00
  HS02004479HS02004480    1.00   0.01  0.00  0.00  0.99  0.00  0.00  0.00  0.16  0.00
  HS02004480HS02004478    1.00   0.06  0.00  0.00  0.52  0.00  0.00  0.42  0.00  0.00
  HS02004770HS02004777    1.00   0.00  0.06  0.00  0.94  0.00  0.00  0.00  0.04  0.00
  HS02004777HS02004785    1.00   0.00  0.00  0.00  1.00  0.00  0.00  0.00  0.17  0.00
  HS02004785HS02004788    1.00   0.00  0.00  0.00  1.00  0.00  0.00  0.00  0.00  0.00
  HS02004788HS02004792    1.00   0.00  0.00  0.00  1.00  0.00  0.00  0.00  0.88  0.00
  HS02004792HS02004799    1.00   0.00  0.00  0.00  1.00  0.00  0.00  0.00  0.83  0.00
  HS02004799HS02004480    1.00   0.00  0.01  0.00  0.91  0.00  0.08  0.00  0.00  0.00
  HS02004802HS02004478    1.00   0.06  0.01  0.00  0.93  0.00  0.00  0.00  0.03  0.00
  HS02004807HS02004802    1.00   0.06  0.00  0.00  0.92  0.00  0.00  0.01  0.00  0.00
  HS02004817HS02004807    1.00   0.00  0.06  0.00  0.94  0.00  0.00  0.00  0.01  0.00
  HS02004817HS02004824    1.00   0.00  0.00  0.00  1.00  0.00  0.00  0.00  0.79  0.00
  HS02004824HS02004830    1.00   0.00  0.00  0.00  1.00  0.00  0.00  0.00  0.01  0.00
  HS02004830HS02004837    1.00   0.00  0.00  0.00  1.00  0.00  0.00  0.00  0.86  0.00
  HS02004837HS02004842    1.00   0.00  0.00  0.00  1.00  0.00  0.00  0.00  0.14  0.00
  HS02004842HS02004848    1.00   0.00  0.06  0.00  0.94  0.00  0.00  0.00  0.42  0.00
  HS02004848HS02004852    1.00   0.06  0.00  0.00  0.94  0.00  0.00  0.00  0.58  0.00
  HS02004852HS02004856    1.00   0.06  0.01  0.00  0.93  0.00  0.00  0.00  0.59  0.00
  HS02004856HS02004862    1.00   0.00  0.11  0.00  0.89  0.00  0.00  0.00  0.64  0.00
  HS02004862HS02004870    1.00   0.00  0.00  0.00  1.00  0.00  0.00  0.00  0.06  0.00
  HS02004870HS02004876    1.00   0.00  0.00  0.00  1.00  0.00  0.00  0.00  0.82  0.00
  HS02004876HS02004881    1.00   0.00  0.00  0.00  0.77  0.22  0.00  0.00  0.00  0.00
  HS02004881HS02006253    1.00   0.02  0.00  0.00  0.68  0.03  0.00  0.28  0.44  0.00
  HS02004901HS02004770    1.00   0.06  0.00  0.00  0.94  0.00  0.00  0.00  0.00  0.00
  WS02001211WS02001212    1.00   0.00  0.01  0.00  0.99  0.00  0.00  0.00  0.00  0.00
  WS02001212WS02001213    1.00   0.01  0.00  0.00  0.57  0.00  0.42  0.00  0.00  0.00
  WS02001213WS02003059    1.00   0.00  0.00  0.00  1.00  0.00  0.00  0.00  0.00  0.00
  WS02003059WS02003060    1.00   0.00  0.00  0.00  1.00  0.00  0.00  0.00  0.04  0.00
  WS02003060WS02003069    1.00   0.00  0.00  0.00  0.99  0.01  0.00  0.00  0.19  0.00
  WS02003066WSF200        1.00   0.05  0.00  0.00  0.00  0.95  0.00  0.00  0.52  0.00
  WS02003067WS02003066    1.00   0.03  0.01  0.00  0.95  0.00  0.00  0.00  0.00  0.00
  WS02003069WS02003072    1.00   0.00  0.00  0.00  1.00  0.00  0.00  0.00  0.37  0.00
  WS02003072WS02003073    1.00   0.00  0.00  0.00  0.00  0.00  0.00  1.00  0.00  0.00
  WS02004138WS02004139    1.00   0.01  0.00  0.00  0.99  0.00  0.00  0.00  0.97  0.00
  WS02004139WS02001211    1.00   0.00  0.00  0.00  1.00  0.00  0.00  0.00  0.01  0.00
  WS02004401WS02004402    1.00   0.00  0.00  0.00  1.00  0.00  0.00  0.00  0.00  0.00
  WS02004402WS02004403    1.00   0.00  0.00  0.00  1.00  0.00  0.00  0.00  0.00  0.00
  WS02004403WS02004404    1.00   0.00  0.00  0.00  1.00  0.00  0.00  0.00  0.00  0.00
  WS02004404WS02004405    1.00   0.00  0.00  0.00  1.00  0.00  0.00  0.00  0.01  0.00
  WS02004405WS02004406    1.00   0.00  0.00  0.00  1.00  0.00  0.00  0.00  0.00  0.00
  WS02004406WS02004407    1.00   0.00  0.00  0.00  1.00  0.00  0.00  0.00  0.01  0.00
  WS02004407WS02004409    1.00   0.00  0.00  0.00  0.99  0.00  0.00  0.00  0.83  0.00
  WS02004409WS02004410    1.00   0.00  0.00  0.00  1.00  0.00  0.00  0.00  0.05  0.00
  WS02004410WS02004411    1.00   0.00  0.00  0.00  1.00  0.00  0.00  0.00  0.03  0.00
  WS02004411WS02004412    1.00   0.00  0.00  0.00  1.00  0.00  0.00  0.00  0.01  0.00
  WS02004412WS02004413    1.00   0.00  0.00  0.00  1.00  0.00  0.00  0.00  0.02  0.00
  WS02004413WS02003067    1.00   0.00  0.03  0.00  0.00  0.00  0.97  0.00  0.00  0.00
  WS02006109WS02006110    1.00   0.00  0.00  0.00  1.00  0.00  0.00  0.00  0.00  0.00
  WS02006110WS02006113    1.00   0.00  0.00  0.00  1.00  0.00  0.00  0.00  0.00  0.00
  WS02006111WS02006112    1.00   0.00  0.00  0.00  1.00  0.00  0.00  0.00  0.75  0.00
  WS02006112WS02006115    1.00   0.00  0.00  0.00  1.00  0.00  0.00  0.00  0.00  0.00
  WS02006113WS02006111    1.00   0.00  0.00  0.00  0.22  0.78  0.00  0.00  0.19  0.00
  WS02006115WS02006116    1.00   0.00  0.00  0.00  1.00  0.00  0.00  0.00  0.00  0.00
  WS02006116WS02004401    1.00   0.00  0.00  0.00  1.00  0.00  0.00  0.00  0.00  0.00
  WS02006228WS02006109    1.00   0.00  0.00  0.00  1.00  0.00  0.00  0.00  0.00  0.00
  WS02006229WS02006228    1.00   0.00  0.00  0.00  1.00  0.00  0.00  0.00  0.00  0.00
  WS02006230WS02006229    1.00   0.00  0.00  0.00  1.00  0.00  0.00  0.00  0.02  0.00
  WS02006231WS02006230    1.00   0.00  0.00  0.00  0.57  0.00  0.42  0.00  0.00  0.00
  WS02006232WS02006231    1.00   0.00  0.00  0.00  0.99  0.00  0.00  0.00  0.01  0.00
  WS02006234WS02006232    1.00   0.00  0.00  0.00  1.00  0.00  0.00  0.00  0.09  0.00
  WS02006235WS02006234    1.00   0.02  0.00  0.00  0.94  0.00  0.04  0.00  0.00  0.00
  WS02006238WS02006235    1.00   0.02  0.00  0.00  0.98  0.00  0.00  0.00  0.00  0.00
  WS02006239WS02006238    1.00   0.02  0.00  0.00  0.98  0.00  0.00  0.00  0.03  0.00
  WS02006240WS02006239    1.00   0.02  0.00  0.00  0.91  0.00  0.00  0.07  0.01  0.00
  WS02006242WS02006240    1.00   0.02  0.01  0.00  0.97  0.00  0.01  0.00  0.00  0.00
  WS02006243WS02006242    1.00   0.01  0.00  0.00  0.98  0.00  0.00  0.01  0.25  0.00
  WS02006245WS02006243    1.00   0.01  0.00  0.00  0.93  0.00  0.00  0.06  0.00  0.00
  WS02006247WS02006245    1.00   0.01  0.00  0.00  0.97  0.00  0.00  0.02  0.00  0.00
  WS02006248WS02006247    1.00   0.01  0.00  0.00  0.98  0.00  0.00  0.02  0.28  0.00
  WS02006249WS02006248    1.00   0.00  0.01  0.00  0.82  0.00  0.17  0.00  0.00  0.00
  WS02006251WS02006249    1.00   0.00  0.00  0.00  1.00  0.00  0.00  0.00  0.33  0.00
  WS02006252WS02006251    1.00   0.02  0.10  0.00  0.23  0.00  0.64  0.00  0.03  0.00
  WS02006253WS02006251    1.00   0.01  0.01  0.00  0.98  0.00  0.00  0.00  0.00  0.00
  WS02006256WS02006235    1.00   0.02  0.00  0.00  0.98  0.00  0.00  0.00  0.00  0.00
  WS02006280WS02006229    1.00   0.07  0.00  0.00  0.18  0.04  0.00  0.72  0.01  0.00
  WS02006284WS02006280    1.00   0.07  0.00  0.00  0.12  0.01  0.00  0.79  0.00  0.00
  WS02006287WS02006284    1.00   0.05  0.05  0.00  0.46  0.44  0.00  0.00  0.53  0.00
  WSF200WS02003060        1.00   0.00  0.05  0.00  0.57  0.38  0.00  0.00  0.33  0.00
  YS02001580YS02001583    1.00   0.30  0.44  0.00  0.26  0.00  0.00  0.00  0.51  0.00
  YS02001583YS02001586    1.00   0.09  0.61  0.00  0.30  0.00  0.00  0.00  0.52  0.00
  YS02001586YS02001590    1.00   0.06  0.00  0.00  0.71  0.06  0.00  0.17  0.50  0.00
  YS02001590YS02001593    1.00   0.06  0.01  0.00  0.14  0.00  0.79  0.00  0.00  0.00
  YS02001593YS02001596    1.00   0.07  0.00  0.00  0.17  0.01  0.00  0.75  0.03  0.00
  YS02001596YS02001600    1.00   0.07  0.00  0.00  0.28  0.04  0.00  0.61  0.09  0.00
  YS02001600YS02001601    1.00   0.06  0.01  0.00  0.93  0.00  0.00  0.00  0.47  0.00
  YS02001601YS02001602    1.00   0.06  0.01  0.00  0.93  0.00  0.00  0.00  0.00  0.00
  YS02001602YS02001605    1.00   0.07  0.00  0.00  0.93  0.00  0.00  0.00  0.00  0.00
  YS02001605YS02001607    1.00   0.07  0.00  0.00  0.93  0.00  0.00  0.00  0.00  0.00
  YS02001607YS02001610    1.00   0.07  0.01  0.00  0.93  0.00  0.00  0.00  0.03  0.00
  YS02001610YS02001613    1.00   0.06  0.00  0.00  0.94  0.00  0.00  0.00  0.01  0.00
  YS02001613YS02001616    1.00   0.06  0.00  0.00  0.94  0.00  0.00  0.00  0.01  0.00
  YS02001616YS02001619    1.00   0.06  0.00  0.00  0.94  0.00  0.00  0.00  0.00  0.00
  YS02001619YS02001622    1.00   0.06  0.00  0.00  0.94  0.00  0.00  0.00  0.04  0.00
  YS02001622YS02001625    1.00   0.06  0.00  0.00  0.94  0.00  0.00  0.00  0.08  0.00
  YS02001625YS02001629    1.00   0.06  0.06  0.00  0.31  0.00  0.56  0.00  0.00  0.00
  YS02001629YS02163301    1.00   0.09  0.01  0.00  0.90  0.00  0.00  0.00  0.00  0.00
  YS02001633YS02163601    1.00   0.00  0.00  0.00  1.00  0.00  0.00  0.00  0.21  0.00
  YS02001641YS02001644    1.00   0.00  0.00  0.00  1.00  0.00  0.00  0.00  0.00  0.00
  YS02001644YS02001647    1.00   0.00  0.12  0.00  0.88  0.00  0.00  0.00  0.00  0.00
  YS02001647YS02001649    1.00   0.00  0.12  0.00  0.66  0.21  0.00  0.00  0.35  0.00
  YS02001649YS02001757    1.00   0.00  0.00  0.00  0.82  0.18  0.00  0.00  0.40  0.00
  YS02001652YS02001649    1.00   0.00  0.00  0.00  0.94  0.06  0.00  0.00  0.54  0.00
  YS02001655YS02001652    1.00   0.00  0.00  0.00  0.38  0.01  0.00  0.60  0.10  0.00
  YS02001658YS02001655    1.00   0.00  0.07  0.00  0.67  0.25  0.00  0.00  0.50  0.00
  YS02001661YS02001658    1.00   0.07  0.00  0.00  0.40  0.52  0.00  0.00  0.57  0.00
  YS02001664YS02001661    1.00   0.06  0.00  0.00  0.80  0.14  0.00  0.00  0.80  0.00
  YS02001745YS02001748    1.00   0.00  0.00  0.00  0.21  0.00  0.00  0.79  0.15  0.00
  YS02001748YS02001751    1.00   0.00  0.00  0.00  0.75  0.25  0.00  0.00  0.56  0.00
  YS02001751YS02001754    1.00   0.00  0.00  0.00  0.35  0.01  0.00  0.64  0.08  0.00
  YS02001754YS02001757    1.00   0.00  0.00  0.00  1.00  0.00  0.00  0.00  0.63  0.00
  YS02001757CaochengTiaoxuchi    1.00   0.00  0.00  0.00  0.61  0.39  0.00  0.00  0.26  0.00
  YS02001759YS02001757    1.00   0.00  0.00  0.00  1.00  0.00  0.00  0.00  0.46  0.00
  YS02001762YS02001759    1.00   0.00  0.00  0.00  1.00  0.00  0.00  0.00  0.07  0.00
  YS02001765YS02001762    1.00   0.00  0.00  0.00  1.00  0.00  0.00  0.00  0.49  0.00
  YS02001767YS02001765    1.00   0.00  0.00  0.00  1.00  0.00  0.00  0.00  0.00  0.00
  YS02001770YS02001767    1.00   0.00  0.00  0.00  1.00  0.00  0.00  0.00  0.00  0.00
  YS02001774YS02001770    1.00   0.00  0.07  0.00  0.93  0.00  0.00  0.00  0.05  0.00
  YS02001779YS02001774    1.00   0.00  0.00  0.00  1.00  0.00  0.00  0.00  0.56  0.00
  YS02001783YS02001784    1.00   0.00  0.14  0.00  0.86  0.00  0.00  0.00  0.40  0.00
  YS02001784YS02001785    1.00   0.00  0.00  0.00  1.00  0.00  0.00  0.00  0.24  0.00
  YS02001786YS02001788    1.00   0.00  0.00  0.00  0.71  0.29  0.00  0.00  0.00  0.00
  YS02001788YS02001790    1.00   0.00  0.00  0.00  0.24  0.76  0.00  0.00  0.76  0.00
  YS02001790YS02001791    1.00   0.00  0.00  0.00  0.07  0.93  0.00  0.00  0.17  0.00
  YS02001791YS02001793    1.00   0.00  0.00  0.00  0.07  0.93  0.00  0.00  0.01  0.00
  YS02001793JiankangQianchi    1.00   0.00  0.00  0.00  0.24  0.76  0.00  0.00  0.22  0.00
  YS02001882YS02001884    1.00   0.09  0.01  0.00  0.90  0.00  0.00  0.00  0.00  0.00
  YS02001884YS02001887    1.00   0.02  0.04  0.00  0.95  0.00  0.00  0.00  0.00  0.00
  YS02001887YS02001890    1.00   0.00  0.00  0.00  0.99  0.00  0.01  0.00  0.00  0.00
  YS02001890YS02001895    1.00   0.00  0.11  0.00  0.89  0.00  0.00  0.00  0.00  0.00
  YS02001895YS02001898    1.00   0.11  0.00  0.00  0.85  0.00  0.04  0.00  0.00  0.00
  YS02001898YS02001901    1.00   0.11  0.01  0.00  0.89  0.00  0.00  0.00  0.02  0.00
  YS02001901YS02001904    1.00   0.11  0.00  0.00  0.89  0.00  0.00  0.00  0.00  0.00
  YS02001904YS02001907    1.00   0.00  0.11  0.00  0.89  0.00  0.00  0.00  0.00  0.00
  YS02001907YS02006553    1.00   0.00  0.01  0.00  0.99  0.00  0.00  0.00  0.00  0.00
  YS02001910YS02001907    1.00   0.00  0.00  0.00  0.99  0.00  0.00  0.01  0.16  0.00
  YS02001915YS02001910    1.00   0.00  0.00  0.00  0.98  0.02  0.00  0.00  0.24  0.00
  YS02001918YS02001915    1.00   0.00  0.00  0.00  1.00  0.00  0.00  0.00  0.68  0.00
  YS02001920YS02001918    1.00   0.00  0.00  0.00  1.00  0.00  0.00  0.00  0.01  0.00
  YS02001923YS02001920    1.00   0.00  0.00  0.00  1.00  0.00  0.00  0.00  0.90  0.00
  YS02001926YS02001923    1.00   0.00  0.02  0.00  0.07  0.00  0.90  0.00  0.00  0.00
  YS02001929YS02001926    1.00   0.00  0.06  0.00  0.94  0.00  0.00  0.00  0.76  0.00
  YS02006553YS02006556    1.00   0.00  0.00  0.00  1.00  0.00  0.00  0.00  0.04  0.00
  YS02006556YS02006558    1.00   0.00  0.00  0.00  1.00  0.00  0.00  0.00  0.00  0.00
  YS02006558YS02006561    1.00   0.14  0.00  0.00  0.08  0.78  0.00  0.00  0.24  0.00
  YS02006561YS02001783    1.00   0.14  0.00  0.00  0.12  0.74  0.00  0.00  0.58  0.00
  YS02163301YS02001633    1.00   0.00  0.09  0.00  0.91  0.00  0.00  0.00  0.00  0.00
  YS02163601YS02164001    1.00   0.00  0.03  0.00  0.97  0.00  0.00  0.00  0.00  0.00
  YS02164001YS02001641    1.00   0.00  0.03  0.00  0.97  0.00  0.00  0.00  0.08  0.00
  YSB1154YSB6556          1.00   0.06  0.00  0.00  0.94  0.00  0.00  0.00  0.02  0.00
  YSB1171HS02004479       1.00   0.01  0.00  0.00  0.98  0.00  0.00  0.00  0.14  0.00
  YSB1174YSB1171          1.00   0.02  0.03  0.00  0.96  0.00  0.00  0.00  0.00  0.00
  YSB6556YSB1171          1.00   0.01  0.05  0.00  0.94  0.00  0.00  0.00  0.00  0.00
  
  
  *************************
  Conduit Surcharge Summary
  *************************
  
  ----------------------------------------------------------------------------
                                                           Hours        Hours 
                         --------- Hours Full --------   Above Full   Capacity
  Conduit                Both Ends  Upstream  Dnstream   Normal Flow   Limited
  ----------------------------------------------------------------------------
  HS02004478WS02006287        0.44      0.44      0.60      0.01         0.01
  HS02004479HS02004480        0.60      0.60      0.62      0.01         0.01
  HS02004480HS02004478        0.54      0.59      0.54      1.52         0.54
  HS02004770HS02004777        0.51      0.51      0.51      0.11         0.06
  HS02004777HS02004785        0.47      0.47      0.51      0.01         0.01
  HS02004785HS02004788        0.46      0.47      0.46      1.24         0.42
  HS02004788HS02004792        0.46      0.46      0.56      0.01         0.01
  HS02004792HS02004799        0.56      0.56      0.68      0.01         0.01
  HS02004799HS02004480        0.59      0.59      0.68      0.75         0.01
  HS02004802HS02004478        0.55      0.55      0.61      0.09         0.01
  HS02004807HS02004802        0.59      0.59      0.60      0.25         0.25
  HS02004817HS02004807        0.59      0.59      1.08      0.01         0.01
  HS02004817HS02004824        0.46      0.46      1.08      0.01         0.01
  HS02004824HS02004830        0.44      0.44      0.46      0.01         0.01
  HS02004830HS02004837        0.40      0.40      0.44      0.01         0.01
  HS02004837HS02004842        0.40      0.40      0.52      0.01         0.01
  HS02004842HS02004848        0.35      0.35      0.52      0.01         0.01
  HS02004848HS02004852        0.35      0.35      0.38      0.03         0.01
  HS02004852HS02004856        0.37      0.38      0.39      0.03         0.01
  HS02004856HS02004862        0.35      0.35      0.39      0.01         0.01
  HS02004862HS02004870        0.39      0.39      0.41      0.19         0.17
  HS02004870HS02004876        0.41      0.41      0.46      0.01         0.01
  HS02004876HS02004881        0.43      0.46      0.43      1.27         0.43
  HS02004881HS02006253        0.43      0.43      1.28      0.01         0.01
  HS02004901HS02004770        0.51      0.51      0.51      0.01         0.01
  WS02003072WS02003073        0.01      0.01      0.01      3.22         0.01
  WS02004401WS02004402        1.36      1.36      1.37      1.25         1.24
  WS02004402WS02004403        1.37      1.37      1.38      1.35         1.34
  WS02004403WS02004404        1.38      1.38      1.58      0.01         0.02
  WS02004404WS02004405        1.51      1.58      1.51      4.37         1.50
  WS02004405WS02004406        1.47      1.51      1.47      1.79         1.47
  WS02004406WS02004407        0.01      0.01      1.47      0.01         0.01
  WS02004407WS02004409        0.01      0.01      0.93      0.01         0.01
  WS02004409WS02004410        0.87      0.93      0.87      1.29         0.87
  WS02004410WS02004411        0.78      0.87      0.78      1.33         0.78
  WS02004411WS02004412        0.70      0.78      0.70      1.35         0.70
  WS02004412WS02004413        0.70      0.70      1.15      0.01         0.01
  WS02004413WS02003067        0.01      0.01      1.15      0.01         0.01
  WS02006109WS02006110        1.74      1.75      2.22      1.76         0.01
  WS02006110WS02006113        1.10      1.10      2.17      0.26         0.01
  WS02006111WS02006112        1.08      1.09      2.77      0.01         0.01
  WS02006112WS02006115        1.30      1.30      1.82      0.01         0.01
  WS02006113WS02006111        1.09      1.10      1.09      1.23         1.09
  WS02006115WS02006116        1.31      1.31      1.31      1.29         1.28
  WS02006116WS02004401        1.35      1.35      1.36      1.34         1.32
  WS02006228WS02006109        2.07      2.23      2.07      3.28         2.07
  WS02006229WS02006228        2.04      2.12      2.04      2.68         2.04
  WS02006230WS02006229        2.39      2.54      2.39      4.23         1.49
  WS02006231WS02006230        1.60      1.60      1.65      3.80         0.89
  WS02006232WS02006231        1.63      1.63      1.99      0.02         0.14
  WS02006234WS02006232        1.74      1.74      1.99      0.02         0.02
  WS02006235WS02006234        1.70      1.70      1.76      3.49         0.87
  WS02006238WS02006235        1.79      1.79      1.92      0.01         0.31
  WS02006239WS02006238        1.81      1.83      1.84      1.41         0.23
  WS02006240WS02006239        1.62      1.64      1.67      1.41         0.16
  WS02006242WS02006240        1.61      1.61      1.96      1.89         0.78
  WS02006243WS02006242        1.57      1.57      1.80      0.01         0.01
  WS02006245WS02006243        1.51      1.52      1.54      0.71         0.14
  WS02006247WS02006245        1.50      1.55      1.50      3.03         0.45
  WS02006248WS02006247        1.46      1.46      1.52      0.01         0.01
  WS02006249WS02006248        1.44      1.44      1.47      1.82         0.01
  WS02006251WS02006249        1.45      1.45      1.47      1.69         1.02
  WS02006252WS02006251        2.12      2.13      2.23      1.19         0.01
  WS02006253WS02006251        1.44      1.44      1.49      0.73         0.02
  WS02006256WS02006235        3.73      3.74      5.27      0.47         0.01
  WS02006280WS02006229        0.70      0.70      0.82      0.01         0.01
  WS02006284WS02006280        0.62      0.62      0.69      0.01         0.01
  WS02006287WS02006284        0.53      0.53      0.63      0.28         0.28
  YS02001580YS02001583        0.55      0.55      0.59      0.01         0.01
  YS02001583YS02001586        0.55      0.55      0.66      0.01         0.01
  YS02001586YS02001590        0.66      0.66      0.72      0.01         0.01
  YS02001590YS02001593        0.72      0.72      0.74      0.75         0.01
  YS02001593YS02001596        0.74      0.74      0.84      0.01         0.01
  YS02001596YS02001600        0.88      0.88      1.00      0.01         0.01
  YS02001600YS02001601        1.06      1.06      1.32      0.01         0.01
  YS02001601YS02001602        1.23      1.23      1.36      0.96         0.01
  YS02001602YS02001605        1.19      1.19      1.23      2.18         0.01
  YS02001605YS02001607        1.15      1.19      1.17      1.21         1.09
  YS02001607YS02001610        0.71      0.71      0.74      0.01         0.01
  YS02001610YS02001613        0.70      0.70      0.74      0.01         0.01
  YS02001613YS02001616        0.66      0.66      0.70      0.01         0.01
  YS02001616YS02001619        0.65      0.65      0.66      0.01         0.02
  YS02001619YS02001622        0.65      0.65      0.65      0.72         0.62
  YS02001622YS02001625        0.65      0.65      0.89      0.01         0.01
  YS02001625YS02001629        0.60      0.60      0.89      0.01         0.01
  YS02001629YS02163301        0.91      0.91      0.93      0.19         0.18
  YS02001633YS02163601        0.96      0.96      1.02      0.37         0.37
  YS02001641YS02001644        0.91      0.93      0.91      1.32         0.90
  YS02001644YS02001647        0.54      0.54      0.91      0.04         0.01
  YS02001647YS02001649        0.54      0.54      0.85      0.01         0.01
  YS02001649YS02001757        0.84      0.85      1.15      0.32         0.24
  YS02001652YS02001649        0.48      0.48      0.85      0.01         0.01
  YS02001655YS02001652        0.31      0.31      0.46      0.01         0.01
  YS02001658YS02001655        0.17      0.17      0.31      0.01         0.01
  YS02001661YS02001658        0.01      0.01      0.17      0.01         0.01
  YS02001664YS02001661        0.01      0.01      0.03      0.01         0.01
  YS02001745YS02001748        0.01      0.01      0.07      0.01         0.01
  YS02001748YS02001751        0.12      0.12      0.19      0.01         0.01
  YS02001751YS02001754        0.19      0.19      0.38      0.01         0.01
  YS02001754YS02001757        0.42      0.42      1.15      0.01         0.01
  YS02001757CaochengTiaoxuchi        0.99      1.15      1.95      0.39         0.16
  YS02001759YS02001757        0.84      0.84      1.15      0.04         0.04
  YS02001762YS02001759        0.79      0.80      0.84      0.01         0.03
  YS02001765YS02001762        0.61      0.61      0.80      0.01         0.01
  YS02001767YS02001765        0.51      0.51      0.61      0.01         0.05
  YS02001770YS02001767        0.51      0.51      0.51      0.50         0.37
  YS02001774YS02001770        0.48      0.48      0.73      0.01         0.01
  YS02001779YS02001774        0.35      0.35      0.73      0.01         0.01
  YS02001783YS02001784        0.61      0.62      0.61      0.64         0.55
  YS02001784YS02001785        0.58      0.61      0.58      0.86         0.58
  YS02001786YS02001788        0.42      0.58      0.42      0.78         0.42
  YS02001788YS02001790        0.42      0.42      0.43      0.01         0.01
  YS02001790YS02001791        0.43      0.43      0.43      0.43         0.25
  YS02001791YS02001793        0.43      0.43      0.47      0.01         0.01
  YS02001793JiankangQianchi        0.46      0.46      0.61      0.01         0.01
  YS02001882YS02001884        0.49      0.49      0.50      0.01         0.01
  YS02001884YS02001887        0.52      0.52      0.53      0.01         0.01
  YS02001887YS02001890        0.55      0.55      0.56      0.09         0.01
  YS02001890YS02001895        0.48      0.48      0.57      0.01         0.01
  YS02001895YS02001898        0.47      0.47      0.48      0.01         0.01
  YS02001898YS02001901        0.48      0.48      0.52      0.01         0.01
  YS02001901YS02001904        0.51      0.51      0.52      0.01         0.01
  YS02001904YS02001907        0.51      0.51      0.76      0.01         0.01
  YS02001907YS02006553        0.87      0.87      0.92      0.01         0.01
  YS02001910YS02001907        0.57      0.57      0.74      0.01         0.01
  YS02001915YS02001910        0.48      0.48      0.57      0.01         0.01
  YS02001918YS02001915        0.39      0.39      0.48      0.01         0.01
  YS02001920YS02001918        0.39      0.39      0.40      0.01         0.01
  YS02001923YS02001920        0.34      0.34      0.40      0.01         0.01
  YS02001926YS02001923        0.06      0.06      0.11      0.01         0.01
  YS02001929YS02001926        0.01      0.01      0.11      0.01         0.01
  YS02006553YS02006556        0.66      0.66      0.76      0.01         0.01
  YS02006556YS02006558        0.71      0.71      0.77      0.01         0.01
  YS02006558YS02006561        0.49      0.64      0.49      0.83         0.49
  YS02006561YS02001783        0.41      0.41      0.62      0.01         0.01
  YS02163301YS02001633        0.93      0.93      0.98      0.01         0.01
  YS02163601YS02164001        0.92      0.92      1.02      0.11         0.01
  YS02164001YS02001641        0.92      0.92      0.93      0.62         0.57
  YSB1154YSB6556              0.66      0.66      0.78      0.01         0.01
  YSB1171HS02004479           0.56      0.56      0.78      0.01         0.01
  YSB1174YSB1171              0.72      0.72      0.99      0.01         0.01
  YSB6556YSB1171              0.66      0.66      1.13      0.01         0.01
  
  
  ***************
  Pumping Summary
  ***************
  
  ---------------------------------------------------------------------------------------------------------
                                                  Min       Avg       Max     Total     Power    % Time Off
                        Percent   Number of      Flow      Flow      Flow    Volume     Usage    Pump Curve
  Pump                 Utilized   Start-Ups       LPS       LPS       LPS  10^6 ltr     Kw-hr    Low   High
  ---------------------------------------------------------------------------------------------------------
  CC-R1                   64.02          12      0.00    501.34    683.00     6.760    118.29    0.0   66.6
  CC-R2                   25.06           8      0.00    605.30    683.00     3.120     55.01    0.0   62.8
  CC-S1                   55.65           7      0.00    153.11    200.00     1.626     11.51    0.0   55.5
  CC-S2                   30.60           9      0.00    132.83    200.00     0.885      6.53    0.0   63.7
  JK-R1                   58.25          10      0.00    230.96   1000.00     2.485     19.48    0.0    0.0
  JK-R2                   30.61           7      0.00    132.05   1000.00     0.713      1.87    0.0    0.0
  JK-S                    30.63           9      0.00    107.58    300.00     0.595     11.89    0.0    0.0
  XR-1                    97.20           1      0.00     95.00     95.00     1.995      8.82    0.0    0.0
  XR-2                    91.96           1      0.00     95.00     95.00     1.887      7.99    0.0    0.0
  XR-3                     0.00           0      0.00      0.00      0.00     0.000      0.00    0.0    0.0
  XR-4                     0.00           0      0.00      0.00      0.00     0.000      0.00    0.0    0.0
  

  Analysis begun on:  Mon Aug 22 16:56:13 2022
  Analysis ended on:  Mon Aug 22 16:56:17 2022
  Total elapsed time: 00:00:04