
  EPA STORM WATER MANAGEMENT MODEL - VERSION 5.1 (Build 5.2.0.dev5)
  --------------------------------------------------------------

  
  *********************************************************
  NOTE: The summary statistics displayed in this report are
  based on results found at every computational time step,  
  not just on results from each reporting time step.
  *********************************************************
  
  ****************
  Analysis Options
  ****************
  Flow Units ............... CMS
  Process Models:
    Rainfall/Runoff ........ YES
    RDII ................... NO
    Snowmelt ............... NO
    Groundwater ............ NO
    Flow Routing ........... YES
    Ponding Allowed ........ NO
    Water Quality .......... NO
  Infiltration Method ...... HORTON
  Flow Routing Method ...... DYNWAVE
  Surcharge Method ......... EXTRAN
  Starting Date ............ 02/28/2007 12:15:00
  Ending Date .............. 03/01/2007 05:15:00
  Antecedent Dry Days ...... 0.0
  Report Time Step ......... 00:05:00
  Wet Time Step ............ 00:05:00
  Dry Time Step ............ 01:00:00
  Routing Time Step ........ 30.00 sec
  Variable Time Step ....... YES
  Maximum Trials ........... 8
  Number of Threads ........ 4
  Head Tolerance ........... 0.001500 m
  
  
  **************************        Volume         Depth
  Runoff Quantity Continuity     hectare-m            mm
  **************************     ---------       -------
  Total Precipitation ......         1.583         8.783
  Evaporation Loss .........         0.000         0.000
  Infiltration Loss ........         0.000         0.000
  Surface Runoff ...........         1.567         8.694
  Final Storage ............         0.019         0.104
  Continuity Error (%) .....        -0.177
  
  
  **************************        Volume        Volume
  Flow Routing Continuity        hectare-m      10^6 ltr
  **************************     ---------     ---------
  Dry Weather Inflow .......         0.448         4.482
  Wet Weather Inflow .......         1.567        15.668
  Groundwater Inflow .......         0.000         0.000
  RDII Inflow ..............         0.000         0.000
  External Inflow ..........         0.000         0.000
  External Outflow .........         1.197        11.970
  Flooding Loss ............         0.096         0.964
  Evaporation Loss .........         0.000         0.000
  Exfiltration Loss ........         0.000         0.000
  Initial Stored Volume ....         0.000         0.000
  Final Stored Volume ......         0.560         5.604
  Continuity Error (%) .....         8.002
  
  
  *************************
  Highest Continuity Errors
  *************************
  Node T2 (36.81%)
  Node T6 (19.61%)
  Node T3 (16.45%)
  Node T5 (6.34%)
  Node T4 (4.34%)
  
  
  ***************************
  Time-Step Critical Elements
  ***************************
  Link C15 (30.92%)
  Link C21 (2.33%)
  
  
  ********************************
  Highest Flow Instability Indexes
  ********************************
  Link C13 (11)
  Link C3 (6)
  Link C11 (6)
  Link C23 (5)
  Link C12 (5)
  
  
  *************************
  Routing Time Step Summary
  *************************
  Minimum Time Step           :     0.41 sec
  Average Time Step           :    27.87 sec
  Maximum Time Step           :    30.00 sec
  Percent in Steady State     :     2.30
  Average Iterations per Step :     2.09
  Percent Not Converging      :     0.00
  
  
  ***************************
  Subcatchment Runoff Summary
  ***************************
  
  ------------------------------------------------------------------------------------------------------------------------------
                            Total      Total      Total      Total     Imperv       Perv      Total       Total     Peak  Runoff
                           Precip      Runon       Evap      Infil     Runoff     Runoff     Runoff      Runoff   Runoff   Coeff
  Subcatchment                 mm         mm         mm         mm         mm         mm         mm    10^6 ltr      CMS
  ------------------------------------------------------------------------------------------------------------------------------
  SC01                      10.33       0.00       0.00       0.00      10.28       0.00      10.28        3.39     0.48   0.995
  SC010                     10.33       0.00       0.00       0.00      10.26       0.00      10.26        1.21     0.15   0.993
  SC02                       8.34       0.00       0.00       0.00       8.28       0.00       8.28        1.88     0.30   0.993
  SC03                       7.61       0.00       0.00       0.00       7.56       0.00       7.56        1.36     0.23   0.993
  SC04                       8.34       0.00       0.00       0.00       8.22       0.00       8.22        0.57     0.07   0.986
  SC05                      10.33       0.00       0.00       0.00      10.27       0.00      10.27        1.60     0.22   0.995
  SC06                       8.17       0.00       0.00       0.00       8.00       0.00       8.00        2.60     0.26   0.979
  SC07                       8.34       0.00       0.00       0.00       8.22       0.00       8.22        0.39     0.05   0.986
  SC08                       7.61       0.00       0.00       0.00       7.52       0.00       7.52        2.10     0.29   0.988
  SC09                       8.17       0.00       0.00       0.00       8.05       0.00       8.05        0.56     0.07   0.986
  
  
  ******************
  Node Depth Summary
  ******************
  
  ---------------------------------------------------------------------------------
                                 Average  Maximum  Maximum  Time of Max    Reported
                                   Depth    Depth      HGL   Occurrence   Max Depth
  Node                 Type       Meters   Meters   Meters  days hr:min      Meters
  ---------------------------------------------------------------------------------
  CSO10                JUNCTION     0.10     0.36    30.36     0  02:55        0.36
  CSO7                 JUNCTION     0.08     0.20    34.20     0  03:00        0.20
  CSO8                 JUNCTION     0.10     0.37    32.37     0  02:50        0.37
  CSO9                 JUNCTION     0.09     0.27    40.27     0  02:55        0.27
  J1                   JUNCTION     0.06     0.16    34.16     0  02:55        0.16
  J10                  JUNCTION     0.08     0.22    29.22     0  02:50        0.22
  J11                  JUNCTION     0.08     0.23    31.23     0  02:51        0.23
  J12                  JUNCTION     0.27     0.77    26.77     0  09:07        0.77
  J13                  JUNCTION     0.05     0.15    29.15     0  02:55        0.15
  J14                  JUNCTION     0.09     0.19    20.19     0  10:48        0.19
  J15                  JUNCTION     0.15     0.28    15.28     0  02:57        0.28
  J16                  JUNCTION     0.06     0.17    30.17     0  02:55        0.17
  J17                  JUNCTION     0.03     0.08    20.08     0  09:30        0.08
  J18                  JUNCTION     0.05     0.14    29.14     0  02:56        0.14
  J19                  JUNCTION     0.14     0.17     8.17     0  06:33        0.17
  J2                   JUNCTION     0.07     0.08    25.08     0  07:30        0.08
  J3                   JUNCTION     0.10     0.16    18.16     0  06:15        0.15
  J4                   JUNCTION     0.09     0.24    33.24     0  03:01        0.24
  J5                   JUNCTION     0.05     0.12    32.12     0  03:00        0.12
  J6                   JUNCTION     0.06     0.11    25.11     0  07:22        0.11
  J7                   JUNCTION     0.07     0.17    39.17     0  02:57        0.17
  J8                   JUNCTION     0.09     0.20    36.20     0  02:56        0.19
  J9                   JUNCTION     0.08     0.16    29.16     0  08:36        0.16
  Out_to_WWTP          OUTFALL      0.14     0.17     6.17     0  04:45        0.17
  T1                   STORAGE      3.09     5.00    15.00     0  04:18        5.00
  T2                   STORAGE      3.40     4.89    25.89     0  09:15        4.89
  T3                   STORAGE      3.34     4.78    26.78     0  09:11        4.77
  T4                   STORAGE      1.98     3.38    30.38     0  09:09        3.38
  T5                   STORAGE      3.01     5.00    32.00     0  06:31        5.00
  T6                   STORAGE      3.60     5.00    36.00     0  16:31        5.00
  
  
  *******************
  Node Inflow Summary
  *******************
  
  -------------------------------------------------------------------------------------------------
                                  Maximum  Maximum                  Lateral       Total        Flow
                                  Lateral    Total  Time of Max      Inflow      Inflow     Balance
                                   Inflow   Inflow   Occurrence      Volume      Volume       Error
  Node                 Type           CMS      CMS  days hr:min    10^6 ltr    10^6 ltr     Percent
  -------------------------------------------------------------------------------------------------
  CSO10                JUNCTION     0.157    0.157     0  02:55        1.37        1.37       0.017
  CSO7                 JUNCTION     0.057    0.057     0  03:00       0.729        0.73       0.053
  CSO8                 JUNCTION     0.303    0.303     0  02:50        2.32        2.32      -0.008
  CSO9                 JUNCTION     0.077    0.077     0  02:55       0.784       0.785       0.035
  J1                   JUNCTION     0.236    0.236     0  02:55        2.26        2.26       0.001
  J10                  JUNCTION     0.243    0.528     0  02:50        1.81        4.14      -0.150
  J11                  JUNCTION     0.000    0.302     0  02:50           0        2.32      -0.081
  J12                  JUNCTION     0.000    0.596     0  02:51           0        7.57       0.977
  J13                  JUNCTION     0.317    0.317     0  02:55        2.43        2.43      -0.304
  J14                  JUNCTION     0.000    0.182     0  10:45           0         3.7       0.191
  J15                  JUNCTION     0.000    0.716     0  02:55           0        12.8       0.373
  J16                  JUNCTION     0.493    0.493     0  02:55        4.04        4.04      -0.053
  J17                  JUNCTION     0.000    0.035     0  09:15           0       0.639       0.539
  J18                  JUNCTION     0.000    0.156     0  02:55           0        1.37      -0.040
  J19                  JUNCTION     0.000    0.271     0  04:18           0          12       0.044
  J2                   JUNCTION     0.000    0.039     0  06:31           0        1.77       0.183
  J3                   JUNCTION     0.000    0.254     0  06:15           0        6.79       0.508
  J4                   JUNCTION     0.000    0.057     0  03:00           0        0.73       0.302
  J5                   JUNCTION     0.075    0.130     0  03:00       0.716        1.44      -0.034
  J6                   JUNCTION     0.000    0.063     0  07:15           0        1.34       0.047
  J7                   JUNCTION     0.000    0.076     0  02:55           0       0.785       0.196
  J8                   JUNCTION     0.284    0.356     0  02:55         3.7        4.49      -0.012
  J9                   JUNCTION     0.000    0.172     0  10:30           0           3      -0.665
  Out_to_WWTP          OUTFALL      0.000    0.271     0  04:20           0          12       0.000
  T1                   STORAGE      0.000    0.691     0  02:57           0        12.8      -0.454
  T2                   STORAGE      0.000    0.314     0  02:56           0        2.44      58.264
  T3                   STORAGE      0.000    0.585     0  02:53           0         7.5      19.694
  T4                   STORAGE      0.000    0.129     0  03:00           0        1.45       4.537
  T5                   STORAGE      0.000    0.235     0  02:55           0        2.26       6.767
  T6                   STORAGE      0.000    0.352     0  02:57           0        4.49      24.390
  
  
  **********************
  Node Surcharge Summary
  **********************
  
  No nodes were surcharged.
  
  
  *********************
  Node Flooding Summary
  *********************
  
  Flooding refers to all water that overflows a node, whether it ponds or not.
  --------------------------------------------------------------------------
                                                             Total   Maximum
                                 Maximum   Time of Max       Flood    Ponded
                        Hours       Rate    Occurrence      Volume     Depth
  Node                 Flooded       CMS   days hr:min    10^6 ltr    Meters
  --------------------------------------------------------------------------
  T1                      2.38     0.247      0  06:31       0.751     0.000
  T5                      1.28     0.092      0  06:51       0.202     0.000
  T6                      0.16     0.025      0  17:00       0.011     0.000
  
  
  **********************
  Storage Volume Summary
  **********************
  
  --------------------------------------------------------------------------------------------------
                         Average     Avg  Evap Exfil       Maximum     Max    Time of Max    Maximum
                          Volume    Pcnt  Pcnt  Pcnt        Volume    Pcnt     Occurrence    Outflow
  Storage Unit           1000 m3    Full  Loss  Loss       1000 m3    Full    days hr:min        CMS
  --------------------------------------------------------------------------------------------------
  T1                       0.432      62     0     0         0.700     100       0  04:18      0.271
  T2                       0.681      68     0     0         0.977      98       0  09:15      0.035
  T3                       1.736      67     0     0         2.485      96       0  09:11      0.248
  T4                       0.198      40     0     0         0.338      68       0  09:09      0.063
  T5                       0.301      60     0     0         0.500     100       0  06:31      0.039
  T6                       0.432      72     0     0         0.600     100       0  16:31      0.172
  
  
  ***********************
  Outfall Loading Summary
  ***********************
  
  -----------------------------------------------------------
                         Flow       Avg       Max       Total
                         Freq      Flow      Flow      Volume
  Outfall Node           Pcnt       CMS       CMS    10^6 ltr
  -----------------------------------------------------------
  Out_to_WWTP           99.59     0.198     0.271      11.970
  -----------------------------------------------------------
  System                99.59     0.198     0.271      11.970
  
  
  ********************
  Link Flow Summary
  ********************
  
  -----------------------------------------------------------------------------
                                 Maximum  Time of Max   Maximum    Max/    Max/
                                  |Flow|   Occurrence   |Veloc|    Full    Full
  Link                 Type          CMS  days hr:min     m/sec    Flow   Depth
  -----------------------------------------------------------------------------
  C1                   CONDUIT     0.039     0  07:10      1.44    0.01    0.12
  C10                  CONDUIT     0.352     0  02:57      1.87    0.04    0.56
  C11                  CONDUIT     0.247     0  06:15      2.07    0.01    0.10
  C12                  CONDUIT     0.167     0  08:36      1.49    0.01    0.23
  C13                  CONDUIT     0.585     0  02:53      1.63    0.03    0.69
  C14                  CONDUIT     0.271     0  04:20      2.08    0.02    0.09
  C15                  CONDUIT     0.302     0  02:50      2.65    0.96    0.67
  C16                  CONDUIT     0.297     0  02:51      1.50    0.03    0.11
  C17                  CONDUIT     0.523     0  02:50      2.51    0.03    0.22
  C18                  CONDUIT     0.314     0  02:56      3.12    0.01    0.53
  C19                  CONDUIT     0.035     0  09:30      1.02    0.01    0.16
  C2                   CONDUIT     0.063     0  07:22      1.82    0.07    0.22
  C20                  CONDUIT     0.491     0  02:55      3.15    0.02    0.11
  C21                  CONDUIT     0.156     0  02:55      1.76    0.90    0.57
  C22                  CONDUIT     0.155     0  02:56      1.45    0.07    0.26
  C23                  CONDUIT     0.691     0  02:57      1.39    0.08    0.59
  C3                   CONDUIT     0.186     0  10:48      2.32    0.07    0.17
  C4                   CONDUIT     0.235     0  02:55      3.04    0.06    0.58
  C5                   CONDUIT     0.057     0  03:00      1.38    0.97    0.87
  C6                   CONDUIT     0.056     0  03:01      1.26    0.89    0.60
  C7                   CONDUIT     0.129     0  03:00      1.62    0.03    0.56
  C8                   CONDUIT     0.076     0  02:55      1.32    0.96    0.70
  C9                   CONDUIT     0.075     0  02:57      1.14    0.25    0.37
  V1                   ORIFICE     0.271     0  04:18                      1.00
  V2                   ORIFICE     0.035     0  09:15                      1.00
  V3                   ORIFICE     0.182     0  10:45                      1.00
  V4                   ORIFICE     0.063     0  07:15                      1.00
  V5                   ORIFICE     0.039     0  06:31                      1.00
  V6                   ORIFICE     0.172     0  10:30                      1.00
  
  
  ***************************
  Flow Classification Summary
  ***************************
  
  -------------------------------------------------------------------------------------
                      Adjusted    ---------- Fraction of Time in Flow Class ---------- 
                       /Actual         Up    Down  Sub   Sup   Up    Down  Norm  Inlet 
  Conduit               Length    Dry  Dry   Dry   Crit  Crit  Crit  Crit  Ltd   Ctrl  
  -------------------------------------------------------------------------------------
  C1                      1.00   0.00  0.00  0.00  0.28  0.72  0.00  0.00  0.96  0.00
  C10                     1.00   0.00  0.00  0.00  0.98  0.02  0.00  0.00  0.99  0.00
  C11                     1.00   0.00  0.00  0.00  0.27  0.73  0.00  0.00  0.99  0.00
  C12                     1.00   0.00  0.00  0.00  0.84  0.16  0.00  0.00  0.94  0.00
  C13                     1.00   0.00  0.00  0.00  0.96  0.04  0.00  0.00  0.36  0.00
  C14                     1.00   0.00  0.00  0.00  0.00  0.99  0.00  0.00  0.50  0.00
  C15                     1.00   0.00  0.00  0.00  0.00  1.00  0.00  0.00  0.01  0.00
  C16                     1.00   0.00  0.00  0.00  0.54  0.46  0.00  0.00  0.40  0.00
  C17                     1.00   0.00  0.00  0.00  0.64  0.36  0.00  0.00  0.98  0.00
  C18                     1.00   0.00  0.00  0.00  0.98  0.02  0.00  0.00  0.99  0.00
  C19                     1.00   0.00  0.00  0.00  0.93  0.06  0.00  0.00  1.00  0.00
  C2                      1.00   0.00  0.00  0.00  0.35  0.64  0.00  0.00  0.96  0.00
  C20                     1.00   0.00  0.00  0.00  0.58  0.42  0.00  0.00  0.99  0.00
  C21                     1.00   0.00  0.00  0.00  0.00  1.00  0.00  0.00  0.00  0.00
  C22                     1.00   0.00  0.00  0.00  0.86  0.14  0.00  0.00  1.00  0.00
  C23                     1.00   0.00  0.00  0.00  0.96  0.04  0.00  0.00  0.98  0.00
  C3                      1.00   0.00  0.00  0.00  0.33  0.66  0.00  0.00  0.55  0.00
  C4                      1.00   0.00  0.00  0.00  0.98  0.02  0.00  0.00  0.99  0.00
  C5                      1.00   0.00  0.00  0.00  0.91  0.09  0.00  0.00  0.99  0.00
  C6                      1.00   0.00  0.00  0.00  0.00  1.00  0.00  0.00  0.00  0.00
  C7                      1.00   0.00  0.00  0.00  0.98  0.02  0.00  0.00  0.99  0.00
  C8                      1.00   0.00  0.00  0.00  0.25  0.75  0.00  0.00  0.00  0.00
  C9                      1.00   0.00  0.00  0.00  1.00  0.00  0.00  0.00  1.00  0.00
  
  
  *************************
  Conduit Surcharge Summary
  *************************
  
  ----------------------------------------------------------------------------
                                                           Hours        Hours 
                         --------- Hours Full --------   Above Full   Capacity
  Conduit                Both Ends  Upstream  Dnstream   Normal Flow   Limited
  ----------------------------------------------------------------------------
  C10                         0.01      0.01     13.99      0.01         0.01
  C13                         0.01      0.01     13.56      0.01         0.01
  C18                         0.01      0.01     13.57      0.01         0.01
  C23                         0.01      0.01     11.91      0.01         0.01
  C4                          0.01      0.01     14.30      0.01         0.01
  C7                          0.01      0.01     12.02      0.01         0.01
  

  Analysis begun on:  Thu Dec 23 15:04:11 2021
  Analysis ended on:  Thu Dec 23 15:04:13 2021
  Total elapsed time: 00:00:02