
  EPA STORM WATER MANAGEMENT MODEL - VERSION 5.1 (Build 5.1.13)
  --------------------------------------------------------------

  
  *********************************************************
  NOTE: The summary statistics displayed in this report are
  based on results found at every computational time step,  
  not just on results from each reporting time step.
  *********************************************************
  
  ****************
  Analysis Options
  ****************
  Flow Units ............... CMS
  Process Models:
    Rainfall/Runoff ........ YES
    RDII ................... NO
    Snowmelt ............... NO
    Groundwater ............ NO
    Flow Routing ........... YES
    Ponding Allowed ........ NO
    Water Quality .......... NO
  Infiltration Method ...... HORTON
  Flow Routing Method ...... DYNWAVE
  Surcharge Method ......... EXTRAN
  Starting Date ............ 01/01/2000 00:00:00
  Ending Date .............. 01/01/2000 04:00:00
  Antecedent Dry Days ...... 0.0
  Report Time Step ......... 00:05:00
  Wet Time Step ............ 00:05:00
  Dry Time Step ............ 00:05:00
  Routing Time Step ........ 30.00 sec
  Variable Time Step ....... YES
  Maximum Trials ........... 8
  Number of Threads ........ 1
  Head Tolerance ........... 0.001500 m
  
  
  *********************
  Control Actions Taken
  *********************
   01/01/2000: 00:00:01 Link V2 setting changed to   0.25 by Control ToolkitAPI
   01/01/2000: 00:00:01 Link V3 setting changed to   0.50 by Control ToolkitAPI
   01/01/2000: 00:00:01 Link V4 setting changed to   0.00 by Control ToolkitAPI
   01/01/2000: 00:00:01 Link V6 setting changed to   0.75 by Control ToolkitAPI
   01/01/2000: 00:05:00 Link V2 setting changed to   0.25 by Control ToolkitAPI
   01/01/2000: 00:05:00 Link V3 setting changed to   0.50 by Control ToolkitAPI
   01/01/2000: 00:05:00 Link V4 setting changed to   0.00 by Control ToolkitAPI
   01/01/2000: 00:05:00 Link V6 setting changed to   0.75 by Control ToolkitAPI
   01/01/2000: 00:10:00 Link V2 setting changed to   0.25 by Control ToolkitAPI
   01/01/2000: 00:10:00 Link V3 setting changed to   0.50 by Control ToolkitAPI
   01/01/2000: 00:10:00 Link V4 setting changed to   0.25 by Control ToolkitAPI
   01/01/2000: 00:10:00 Link V6 setting changed to   0.75 by Control ToolkitAPI
   01/01/2000: 00:15:00 Link V2 setting changed to   0.25 by Control ToolkitAPI
   01/01/2000: 00:15:00 Link V3 setting changed to   0.50 by Control ToolkitAPI
   01/01/2000: 00:15:00 Link V4 setting changed to   0.25 by Control ToolkitAPI
   01/01/2000: 00:15:00 Link V6 setting changed to   0.75 by Control ToolkitAPI
   01/01/2000: 00:20:00 Link V2 setting changed to   0.25 by Control ToolkitAPI
   01/01/2000: 00:20:00 Link V3 setting changed to   0.50 by Control ToolkitAPI
   01/01/2000: 00:20:00 Link V4 setting changed to   0.25 by Control ToolkitAPI
   01/01/2000: 00:20:00 Link V6 setting changed to   0.75 by Control ToolkitAPI
   01/01/2000: 00:25:00 Link V2 setting changed to   0.25 by Control ToolkitAPI
   01/01/2000: 00:25:00 Link V3 setting changed to   0.50 by Control ToolkitAPI
   01/01/2000: 00:25:00 Link V4 setting changed to   0.25 by Control ToolkitAPI
   01/01/2000: 00:25:00 Link V6 setting changed to   0.75 by Control ToolkitAPI
   01/01/2000: 00:30:00 Link V2 setting changed to   0.25 by Control ToolkitAPI
   01/01/2000: 00:30:00 Link V3 setting changed to   0.50 by Control ToolkitAPI
   01/01/2000: 00:30:00 Link V4 setting changed to   0.25 by Control ToolkitAPI
   01/01/2000: 00:30:00 Link V6 setting changed to   0.75 by Control ToolkitAPI
   01/01/2000: 00:35:00 Link V2 setting changed to   0.25 by Control ToolkitAPI
   01/01/2000: 00:35:00 Link V3 setting changed to   0.50 by Control ToolkitAPI
   01/01/2000: 00:35:00 Link V4 setting changed to   0.25 by Control ToolkitAPI
   01/01/2000: 00:35:00 Link V6 setting changed to   0.75 by Control ToolkitAPI
   01/01/2000: 00:40:00 Link V2 setting changed to   0.25 by Control ToolkitAPI
   01/01/2000: 00:40:00 Link V3 setting changed to   0.50 by Control ToolkitAPI
   01/01/2000: 00:40:00 Link V4 setting changed to   0.25 by Control ToolkitAPI
   01/01/2000: 00:40:00 Link V6 setting changed to   0.75 by Control ToolkitAPI
   01/01/2000: 00:45:00 Link V2 setting changed to   0.25 by Control ToolkitAPI
   01/01/2000: 00:45:00 Link V3 setting changed to   0.50 by Control ToolkitAPI
   01/01/2000: 00:45:00 Link V4 setting changed to   0.25 by Control ToolkitAPI
   01/01/2000: 00:45:00 Link V6 setting changed to   0.75 by Control ToolkitAPI
   01/01/2000: 00:50:00 Link V2 setting changed to   0.25 by Control ToolkitAPI
   01/01/2000: 00:50:00 Link V3 setting changed to   0.50 by Control ToolkitAPI
   01/01/2000: 00:50:00 Link V4 setting changed to   0.25 by Control ToolkitAPI
   01/01/2000: 00:50:00 Link V6 setting changed to   0.75 by Control ToolkitAPI
   01/01/2000: 00:55:00 Link V2 setting changed to   0.25 by Control ToolkitAPI
   01/01/2000: 00:55:00 Link V3 setting changed to   0.50 by Control ToolkitAPI
   01/01/2000: 00:55:00 Link V4 setting changed to   0.25 by Control ToolkitAPI
   01/01/2000: 00:55:00 Link V6 setting changed to   0.75 by Control ToolkitAPI
   01/01/2000: 01:00:00 Link V2 setting changed to   0.25 by Control ToolkitAPI
   01/01/2000: 01:00:00 Link V3 setting changed to   0.50 by Control ToolkitAPI
   01/01/2000: 01:00:00 Link V4 setting changed to   0.25 by Control ToolkitAPI
   01/01/2000: 01:00:00 Link V6 setting changed to   0.75 by Control ToolkitAPI
   01/01/2000: 01:05:00 Link V2 setting changed to   0.25 by Control ToolkitAPI
   01/01/2000: 01:05:00 Link V3 setting changed to   0.50 by Control ToolkitAPI
   01/01/2000: 01:05:00 Link V4 setting changed to   0.25 by Control ToolkitAPI
   01/01/2000: 01:05:00 Link V6 setting changed to   0.75 by Control ToolkitAPI
   01/01/2000: 01:10:00 Link V2 setting changed to   0.25 by Control ToolkitAPI
   01/01/2000: 01:10:00 Link V3 setting changed to   0.50 by Control ToolkitAPI
   01/01/2000: 01:10:00 Link V4 setting changed to   0.25 by Control ToolkitAPI
   01/01/2000: 01:10:00 Link V6 setting changed to   0.75 by Control ToolkitAPI
   01/01/2000: 01:15:00 Link V2 setting changed to   0.25 by Control ToolkitAPI
   01/01/2000: 01:15:00 Link V3 setting changed to   0.50 by Control ToolkitAPI
   01/01/2000: 01:15:00 Link V4 setting changed to   0.25 by Control ToolkitAPI
   01/01/2000: 01:15:00 Link V6 setting changed to   0.75 by Control ToolkitAPI
   01/01/2000: 01:20:00 Link V2 setting changed to   0.25 by Control ToolkitAPI
   01/01/2000: 01:20:00 Link V3 setting changed to   0.50 by Control ToolkitAPI
   01/01/2000: 01:20:00 Link V4 setting changed to   0.25 by Control ToolkitAPI
   01/01/2000: 01:20:00 Link V6 setting changed to   0.75 by Control ToolkitAPI
   01/01/2000: 01:25:00 Link V2 setting changed to   0.25 by Control ToolkitAPI
   01/01/2000: 01:25:00 Link V3 setting changed to   0.50 by Control ToolkitAPI
   01/01/2000: 01:25:00 Link V4 setting changed to   0.25 by Control ToolkitAPI
   01/01/2000: 01:25:00 Link V6 setting changed to   0.75 by Control ToolkitAPI
   01/01/2000: 01:30:00 Link V2 setting changed to   0.25 by Control ToolkitAPI
   01/01/2000: 01:30:00 Link V3 setting changed to   0.50 by Control ToolkitAPI
   01/01/2000: 01:30:00 Link V4 setting changed to   0.25 by Control ToolkitAPI
   01/01/2000: 01:30:00 Link V6 setting changed to   0.75 by Control ToolkitAPI
   01/01/2000: 01:35:00 Link V2 setting changed to   0.25 by Control ToolkitAPI
   01/01/2000: 01:35:00 Link V3 setting changed to   0.50 by Control ToolkitAPI
   01/01/2000: 01:35:00 Link V4 setting changed to   0.25 by Control ToolkitAPI
   01/01/2000: 01:35:00 Link V6 setting changed to   0.75 by Control ToolkitAPI
   01/01/2000: 01:40:00 Link V2 setting changed to   0.25 by Control ToolkitAPI
   01/01/2000: 01:40:00 Link V3 setting changed to   0.50 by Control ToolkitAPI
   01/01/2000: 01:40:00 Link V4 setting changed to   0.25 by Control ToolkitAPI
   01/01/2000: 01:40:00 Link V6 setting changed to   0.75 by Control ToolkitAPI
   01/01/2000: 01:45:00 Link V2 setting changed to   0.25 by Control ToolkitAPI
   01/01/2000: 01:45:00 Link V3 setting changed to   0.50 by Control ToolkitAPI
   01/01/2000: 01:45:00 Link V4 setting changed to   0.25 by Control ToolkitAPI
   01/01/2000: 01:45:00 Link V6 setting changed to   0.75 by Control ToolkitAPI
   01/01/2000: 01:50:00 Link V2 setting changed to   0.25 by Control ToolkitAPI
   01/01/2000: 01:50:00 Link V3 setting changed to   0.50 by Control ToolkitAPI
   01/01/2000: 01:50:00 Link V4 setting changed to   0.25 by Control ToolkitAPI
   01/01/2000: 01:50:00 Link V6 setting changed to   0.75 by Control ToolkitAPI
   01/01/2000: 01:55:00 Link V2 setting changed to   0.25 by Control ToolkitAPI
   01/01/2000: 01:55:00 Link V3 setting changed to   0.50 by Control ToolkitAPI
   01/01/2000: 01:55:00 Link V4 setting changed to   0.25 by Control ToolkitAPI
   01/01/2000: 01:55:00 Link V6 setting changed to   0.75 by Control ToolkitAPI
   01/01/2000: 02:00:00 Link V2 setting changed to   0.25 by Control ToolkitAPI
   01/01/2000: 02:00:00 Link V3 setting changed to   0.50 by Control ToolkitAPI
   01/01/2000: 02:00:00 Link V4 setting changed to   0.25 by Control ToolkitAPI
   01/01/2000: 02:00:00 Link V6 setting changed to   0.75 by Control ToolkitAPI
   01/01/2000: 02:05:00 Link V2 setting changed to   0.25 by Control ToolkitAPI
   01/01/2000: 02:05:00 Link V3 setting changed to   0.50 by Control ToolkitAPI
   01/01/2000: 02:05:00 Link V4 setting changed to   0.25 by Control ToolkitAPI
   01/01/2000: 02:05:00 Link V6 setting changed to   0.75 by Control ToolkitAPI
   01/01/2000: 02:10:00 Link V2 setting changed to   0.25 by Control ToolkitAPI
   01/01/2000: 02:10:00 Link V3 setting changed to   0.50 by Control ToolkitAPI
   01/01/2000: 02:10:00 Link V4 setting changed to   0.25 by Control ToolkitAPI
   01/01/2000: 02:10:00 Link V6 setting changed to   0.75 by Control ToolkitAPI
   01/01/2000: 02:15:00 Link V2 setting changed to   0.25 by Control ToolkitAPI
   01/01/2000: 02:15:00 Link V3 setting changed to   0.50 by Control ToolkitAPI
   01/01/2000: 02:15:00 Link V4 setting changed to   0.25 by Control ToolkitAPI
   01/01/2000: 02:15:00 Link V6 setting changed to   0.75 by Control ToolkitAPI
   01/01/2000: 02:20:00 Link V2 setting changed to   0.25 by Control ToolkitAPI
   01/01/2000: 02:20:00 Link V3 setting changed to   0.50 by Control ToolkitAPI
   01/01/2000: 02:20:00 Link V4 setting changed to   0.25 by Control ToolkitAPI
   01/01/2000: 02:20:00 Link V6 setting changed to   0.75 by Control ToolkitAPI
   01/01/2000: 02:25:00 Link V2 setting changed to   0.25 by Control ToolkitAPI
   01/01/2000: 02:25:00 Link V3 setting changed to   0.50 by Control ToolkitAPI
   01/01/2000: 02:25:00 Link V4 setting changed to   0.25 by Control ToolkitAPI
   01/01/2000: 02:25:00 Link V6 setting changed to   0.75 by Control ToolkitAPI
   01/01/2000: 02:30:00 Link V2 setting changed to   0.25 by Control ToolkitAPI
   01/01/2000: 02:30:00 Link V3 setting changed to   0.50 by Control ToolkitAPI
   01/01/2000: 02:30:00 Link V4 setting changed to   0.25 by Control ToolkitAPI
   01/01/2000: 02:30:00 Link V6 setting changed to   0.75 by Control ToolkitAPI
   01/01/2000: 02:35:00 Link V2 setting changed to   0.25 by Control ToolkitAPI
   01/01/2000: 02:35:00 Link V3 setting changed to   0.50 by Control ToolkitAPI
   01/01/2000: 02:35:00 Link V4 setting changed to   0.25 by Control ToolkitAPI
   01/01/2000: 02:35:00 Link V6 setting changed to   0.75 by Control ToolkitAPI
   01/01/2000: 02:40:00 Link V2 setting changed to   0.25 by Control ToolkitAPI
   01/01/2000: 02:40:00 Link V3 setting changed to   0.50 by Control ToolkitAPI
   01/01/2000: 02:40:00 Link V4 setting changed to   0.25 by Control ToolkitAPI
   01/01/2000: 02:40:00 Link V6 setting changed to   0.75 by Control ToolkitAPI
   01/01/2000: 02:45:00 Link V2 setting changed to   0.25 by Control ToolkitAPI
   01/01/2000: 02:45:00 Link V3 setting changed to   0.50 by Control ToolkitAPI
   01/01/2000: 02:45:00 Link V4 setting changed to   0.25 by Control ToolkitAPI
   01/01/2000: 02:45:00 Link V6 setting changed to   0.75 by Control ToolkitAPI
   01/01/2000: 02:50:00 Link V2 setting changed to   0.25 by Control ToolkitAPI
   01/01/2000: 02:50:00 Link V3 setting changed to   0.50 by Control ToolkitAPI
   01/01/2000: 02:50:00 Link V4 setting changed to   0.25 by Control ToolkitAPI
   01/01/2000: 02:50:00 Link V6 setting changed to   0.75 by Control ToolkitAPI
   01/01/2000: 02:55:00 Link V2 setting changed to   0.25 by Control ToolkitAPI
   01/01/2000: 02:55:00 Link V3 setting changed to   0.50 by Control ToolkitAPI
   01/01/2000: 02:55:00 Link V4 setting changed to   0.25 by Control ToolkitAPI
   01/01/2000: 02:55:00 Link V6 setting changed to   0.75 by Control ToolkitAPI
   01/01/2000: 03:00:00 Link V2 setting changed to   0.25 by Control ToolkitAPI
   01/01/2000: 03:00:00 Link V3 setting changed to   0.50 by Control ToolkitAPI
   01/01/2000: 03:00:00 Link V4 setting changed to   0.25 by Control ToolkitAPI
   01/01/2000: 03:00:00 Link V6 setting changed to   0.75 by Control ToolkitAPI
   01/01/2000: 03:05:00 Link V2 setting changed to   0.25 by Control ToolkitAPI
   01/01/2000: 03:05:00 Link V3 setting changed to   0.50 by Control ToolkitAPI
   01/01/2000: 03:05:00 Link V4 setting changed to   0.25 by Control ToolkitAPI
   01/01/2000: 03:05:00 Link V6 setting changed to   0.75 by Control ToolkitAPI
   01/01/2000: 03:10:00 Link V2 setting changed to   0.25 by Control ToolkitAPI
   01/01/2000: 03:10:00 Link V3 setting changed to   0.50 by Control ToolkitAPI
   01/01/2000: 03:10:00 Link V4 setting changed to   0.25 by Control ToolkitAPI
   01/01/2000: 03:10:00 Link V6 setting changed to   0.75 by Control ToolkitAPI
   01/01/2000: 03:15:00 Link V2 setting changed to   0.25 by Control ToolkitAPI
   01/01/2000: 03:15:00 Link V3 setting changed to   0.50 by Control ToolkitAPI
   01/01/2000: 03:15:00 Link V4 setting changed to   0.25 by Control ToolkitAPI
   01/01/2000: 03:15:00 Link V6 setting changed to   0.75 by Control ToolkitAPI
   01/01/2000: 03:20:00 Link V2 setting changed to   0.25 by Control ToolkitAPI
   01/01/2000: 03:20:00 Link V3 setting changed to   0.50 by Control ToolkitAPI
   01/01/2000: 03:20:00 Link V4 setting changed to   0.25 by Control ToolkitAPI
   01/01/2000: 03:20:00 Link V6 setting changed to   0.75 by Control ToolkitAPI
   01/01/2000: 03:25:00 Link V2 setting changed to   0.25 by Control ToolkitAPI
   01/01/2000: 03:25:00 Link V3 setting changed to   0.50 by Control ToolkitAPI
   01/01/2000: 03:25:00 Link V4 setting changed to   0.25 by Control ToolkitAPI
   01/01/2000: 03:25:00 Link V6 setting changed to   0.75 by Control ToolkitAPI
   01/01/2000: 03:30:00 Link V2 setting changed to   0.25 by Control ToolkitAPI
   01/01/2000: 03:30:00 Link V3 setting changed to   0.50 by Control ToolkitAPI
   01/01/2000: 03:30:00 Link V4 setting changed to   0.25 by Control ToolkitAPI
   01/01/2000: 03:30:00 Link V6 setting changed to   0.75 by Control ToolkitAPI
   01/01/2000: 03:35:00 Link V2 setting changed to   0.25 by Control ToolkitAPI
   01/01/2000: 03:35:00 Link V3 setting changed to   0.50 by Control ToolkitAPI
   01/01/2000: 03:35:00 Link V4 setting changed to   0.25 by Control ToolkitAPI
   01/01/2000: 03:35:00 Link V6 setting changed to   0.75 by Control ToolkitAPI
   01/01/2000: 03:40:00 Link V2 setting changed to   0.25 by Control ToolkitAPI
   01/01/2000: 03:40:00 Link V3 setting changed to   0.50 by Control ToolkitAPI
   01/01/2000: 03:40:00 Link V4 setting changed to   0.25 by Control ToolkitAPI
   01/01/2000: 03:40:00 Link V6 setting changed to   0.75 by Control ToolkitAPI
   01/01/2000: 03:45:00 Link V2 setting changed to   0.25 by Control ToolkitAPI
   01/01/2000: 03:45:00 Link V3 setting changed to   0.50 by Control ToolkitAPI
   01/01/2000: 03:45:00 Link V4 setting changed to   0.25 by Control ToolkitAPI
   01/01/2000: 03:45:00 Link V6 setting changed to   0.75 by Control ToolkitAPI
   01/01/2000: 03:50:00 Link V2 setting changed to   0.25 by Control ToolkitAPI
   01/01/2000: 03:50:00 Link V3 setting changed to   0.50 by Control ToolkitAPI
   01/01/2000: 03:50:00 Link V4 setting changed to   0.25 by Control ToolkitAPI
   01/01/2000: 03:50:00 Link V6 setting changed to   0.75 by Control ToolkitAPI
   01/01/2000: 03:55:00 Link V2 setting changed to   0.25 by Control ToolkitAPI
   01/01/2000: 03:55:00 Link V3 setting changed to   0.50 by Control ToolkitAPI
   01/01/2000: 03:55:00 Link V4 setting changed to   0.25 by Control ToolkitAPI
   01/01/2000: 03:55:00 Link V6 setting changed to   0.75 by Control ToolkitAPI

  
  **************************        Volume         Depth
  Runoff Quantity Continuity     hectare-m            mm
  **************************     ---------       -------
  Total Precipitation ......         2.445        13.571
  Evaporation Loss .........         0.000         0.000
  Infiltration Loss ........         0.000         0.000
  Surface Runoff ...........         2.410        13.374
  Final Storage ............         0.044         0.243
  Continuity Error (%) .....        -0.341
  
  
  **************************        Volume        Volume
  Flow Routing Continuity        hectare-m      10^6 ltr
  **************************     ---------     ---------
  Dry Weather Inflow .......         0.027         0.268
  Wet Weather Inflow .......         2.409        24.089
  Groundwater Inflow .......         0.000         0.000
  RDII Inflow ..............         0.000         0.000
  External Inflow ..........         0.000         0.000
  External Outflow .........         0.338         3.382
  Flooding Loss ............         1.020        10.203
  Evaporation Loss .........         0.000         0.000
  Exfiltration Loss ........         0.000         0.000
  Initial Stored Volume ....         0.000         0.000
  Final Stored Volume ......         0.825         8.247
  Continuity Error (%) .....        10.364
  
  
  *************************
  Highest Continuity Errors
  *************************
  Node T2 (28.76%)
  Node T4 (25.89%)
  Node T3 (23.85%)
  Node T5 (19.19%)
  Node T6 (12.62%)
  
  
  ***************************
  Time-Step Critical Elements
  ***************************
  Link C15 (66.76%)
  
  
  ********************************
  Highest Flow Instability Indexes
  ********************************
  Link C13 (7)
  Link C5 (2)
  Link C6 (1)
  Link C21 (1)
  
  
  *************************
  Routing Time Step Summary
  *************************
  Minimum Time Step           :     0.00 sec
  Average Time Step           :    20.90 sec
  Maximum Time Step           :    30.00 sec
  Percent in Steady State     :     0.00
  Average Iterations per Step :     2.72
  Percent Not Converging      :     3.92
  
  
  ***************************
  Subcatchment Runoff Summary
  ***************************
  
  ------------------------------------------------------------------------------------------------------------------------------
                            Total      Total      Total      Total     Imperv       Perv      Total       Total     Peak  Runoff
                           Precip      Runon       Evap      Infil     Runoff     Runoff     Runoff      Runoff   Runoff   Coeff
  Subcatchment                 mm         mm         mm         mm         mm         mm         mm    10^6 ltr      CMS
  ------------------------------------------------------------------------------------------------------------------------------
  SC01                      13.57       0.00       0.00       0.00      13.48       0.00      13.48        4.45     1.46   0.993
  SC010                     13.57       0.00       0.00       0.00      13.41       0.00      13.41        1.58     0.49   0.988
  SC02                      13.57       0.00       0.00       0.00      13.46       0.00      13.46        3.06     0.99   0.992
  SC03                      13.57       0.00       0.00       0.00      13.53       0.00      13.53        2.43     0.83   0.997
  SC04                      13.57       0.00       0.00       0.00      13.22       0.00      13.22        0.91     0.26   0.974
  SC05                      13.57       0.00       0.00       0.00      13.46       0.00      13.46        2.10     0.68   0.992
  SC06                      13.57       0.00       0.00       0.00      13.11       0.00      13.11        4.27     1.16   0.966
  SC07                      13.57       0.00       0.00       0.00      13.23       0.00      13.23        0.63     0.18   0.975
  SC08                      13.57       0.00       0.00       0.00      13.40       0.00      13.40        3.75     1.16   0.987
  SC09                      13.57       0.00       0.00       0.00      13.34       0.00      13.34        0.92     0.27   0.983
  
  
  ******************
  Node Depth Summary
  ******************
  
  ---------------------------------------------------------------------------------
                                 Average  Maximum  Maximum  Time of Max    Reported
                                   Depth    Depth      HGL   Occurrence   Max Depth
  Node                 Type       Meters   Meters   Meters  days hr:min      Meters
  ---------------------------------------------------------------------------------
  CSO10                JUNCTION     0.44     1.00    31.00     0  00:19        1.00
  CSO7                 JUNCTION     0.50     1.20    35.20     0  00:23        1.20
  CSO8                 JUNCTION     0.82     2.00    34.00     0  00:19        2.00
  CSO9                 JUNCTION     0.78     2.00    42.00     0  00:21        2.00
  J1                   JUNCTION     0.13     0.27    34.27     0  00:35        0.27
  J10                  JUNCTION     0.18     0.35    29.35     0  00:35        0.35
  J11                  JUNCTION     0.18     0.30    31.30     0  01:08        0.30
  J12                  JUNCTION     0.64     1.02    27.02     0  02:13        1.02
  J13                  JUNCTION     0.12     0.26    29.26     0  00:35        0.26
  J14                  JUNCTION     0.11     0.13    20.13     0  04:00        0.13
  J15                  JUNCTION     0.26     0.45    15.45     0  00:41        0.45
  J16                  JUNCTION     0.14     0.29    30.29     0  00:35        0.29
  J17                  JUNCTION     0.07     0.08    20.08     0  02:02        0.08
  J18                  JUNCTION     0.10     0.16    29.16     0  00:57        0.16
  J19                  JUNCTION     0.15     0.17     8.17     0  00:41        0.17
  J2                   JUNCTION     0.07     0.08    25.08     0  01:59        0.08
  J3                   JUNCTION     0.10     0.12    18.12     0  02:17        0.12
  J4                   JUNCTION     0.31     1.02    34.02     0  00:25        0.74
  J5                   JUNCTION     0.11     0.19    32.19     0  00:46        0.19
  J6                   JUNCTION     0.05     0.06    25.06     0  02:01        0.06
  J7                   JUNCTION     0.14     0.23    39.23     0  01:08        0.23
  J8                   JUNCTION     0.20     0.37    36.37     0  00:50        0.37
  J9                   JUNCTION     0.12     0.14    29.14     0  02:18        0.14
  Out_to_WWTP          OUTFALL      0.15     0.17     6.17     0  02:35        0.17
  T1                   STORAGE      4.13     5.00    15.00     0  00:40        5.00
  T2                   STORAGE      3.99     5.00    26.00     0  00:56        5.00
  T3                   STORAGE      3.59     5.00    27.00     0  01:57        5.00
  T4                   STORAGE      3.67     5.00    32.00     0  01:16        5.00
  T5                   STORAGE      4.06     5.00    32.00     0  00:46        5.00
  T6                   STORAGE      3.94     5.00    36.00     0  00:47        5.00
  
  
  *******************
  Node Inflow Summary
  *******************
  
  -------------------------------------------------------------------------------------------------
                                  Maximum  Maximum                  Lateral       Total        Flow
                                  Lateral    Total  Time of Max      Inflow      Inflow     Balance
                                   Inflow   Inflow   Occurrence      Volume      Volume       Error
  Node                 Type           CMS      CMS  days hr:min    10^6 ltr    10^6 ltr     Percent
  -------------------------------------------------------------------------------------------------
  CSO10                JUNCTION     0.492    0.492     0  00:40        1.59        1.59       0.010
  CSO7                 JUNCTION     0.180    0.180     0  00:45       0.649       0.649       0.070
  CSO8                 JUNCTION     1.163    1.163     0  00:40        3.75        3.75       0.009
  CSO9                 JUNCTION     0.276    0.276     0  00:40       0.935       0.935       0.033
  J1                   JUNCTION     0.681    0.681     0  00:35        2.14        2.14      -0.156
  J10                  JUNCTION     0.830    1.315     0  00:35        2.46        4.89      -0.112
  J11                  JUNCTION     0.000    0.487     0  01:08           0        2.44       0.287
  J12                  JUNCTION     0.000    1.389     0  00:36           0        6.58      13.858
  J13                  JUNCTION     0.993    0.993     0  00:35         3.1         3.1      -0.399
  J14                  JUNCTION     0.000    0.095     0  01:57           0        1.14       0.527
  J15                  JUNCTION     0.000    1.750     0  00:37           0        7.76       0.935
  J16                  JUNCTION     1.461    1.461     0  00:35        4.48        4.48      -0.095
  J17                  JUNCTION     0.000    0.035     0  00:56           0       0.439       1.791
  J18                  JUNCTION     0.000    0.202     0  01:04           0        1.02       0.009
  J19                  JUNCTION     0.000    0.271     0  00:40           0        3.39       0.351
  J2                   JUNCTION     0.000    0.039     0  00:46           0       0.492       1.015
  J3                   JUNCTION     0.000    0.154     0  02:07           0        1.85       1.962
  J4                   JUNCTION     0.000    0.085     0  00:23           0       0.435       0.438
  J5                   JUNCTION     0.260    0.333     0  00:45       0.922        1.35      -0.067
  J6                   JUNCTION     0.000    0.020     0  01:16           0       0.241       1.356
  J7                   JUNCTION     0.000    0.127     0  01:08           0       0.652       0.383
  J8                   JUNCTION     1.167    1.295     0  00:50        4.34        4.99      -0.035
  J9                   JUNCTION     0.000    0.131     0  00:47           0        1.61       1.765
  Out_to_WWTP          OUTFALL      0.000    0.271     0  00:42           0        3.38       0.000
  T1                   STORAGE      0.000    1.744     0  00:41           0        7.69       9.764
  T2                   STORAGE      0.000    0.992     0  00:35           0        3.11      40.363
  T3                   STORAGE      0.000    1.385     0  00:38           0        5.78      31.324
  T4                   STORAGE      0.000    0.332     0  00:46           0        1.36      34.928
  T5                   STORAGE      0.000    0.680     0  00:35           0        2.14      23.747
  T6                   STORAGE      0.000    1.293     0  00:50           0        4.99      14.440
  
  
  **********************
  Node Surcharge Summary
  **********************
  
  Surcharging occurs when water rises above the top of the highest conduit.
  ---------------------------------------------------------------------
                                               Max. Height   Min. Depth
                                   Hours       Above Crown    Below Rim
  Node                 Type      Surcharged         Meters       Meters
  ---------------------------------------------------------------------
  CSO10                JUNCTION        0.88          0.560        0.000
  CSO7                 JUNCTION        1.00          0.945        0.000
  CSO8                 JUNCTION        0.98          1.547        0.000
  CSO9                 JUNCTION        0.99          1.682        0.000
  J4                   JUNCTION        0.96          0.717        0.983
  
  
  *********************
  Node Flooding Summary
  *********************
  
  Flooding refers to all water that overflows a node, whether it ponds or not.
  --------------------------------------------------------------------------
                                                             Total   Maximum
                                 Maximum   Time of Max       Flood    Ponded
                        Hours       Rate    Occurrence      Volume     Depth
  Node                 Flooded       CMS   days hr:min    10^6 ltr    Meters
  --------------------------------------------------------------------------
  CSO10                   0.82     0.290      0  00:40       0.565     0.000
  CSO7                    0.87     0.107      0  00:45       0.214     0.000
  CSO8                    0.82     0.677      0  00:40       1.314     0.000
  CSO9                    0.79     0.148      0  00:40       0.282     0.000
  T1                      1.73     1.474      0  00:40       3.021     0.000
  T2                      1.47     0.754      0  00:56       0.835     0.000
  T3                      1.49     0.433      0  02:04       0.564     0.000
  T4                      1.55     0.153      0  01:16       0.281     0.000
  T5                      1.41     0.603      0  00:46       0.819     0.000
  T6                      1.58     1.161      0  00:50       2.304     0.000
  
  
  **********************
  Storage Volume Summary
  **********************
  
  --------------------------------------------------------------------------------------------------
                         Average     Avg  Evap Exfil       Maximum     Max    Time of Max    Maximum
                          Volume    Pcnt  Pcnt  Pcnt        Volume    Pcnt     Occurrence    Outflow
  Storage Unit           1000 m3    Full  Loss  Loss       1000 m3    Full    days hr:min        CMS
  --------------------------------------------------------------------------------------------------
  T1                       0.579      83     0     0         0.700     100       0  00:40      0.271
  T2                       0.798      80     0     0         1.000     100       0  00:56      0.035
  T3                       1.867      72     0     0         2.600     100       0  01:57      0.280
  T4                       0.367      73     0     0         0.500     100       0  01:16      0.020
  T5                       0.406      81     0     0         0.500     100       0  00:46      0.039
  T6                       0.473      79     0     0         0.600     100       0  00:47      0.131
  
  
  ***********************
  Outfall Loading Summary
  ***********************
  
  -----------------------------------------------------------
                         Flow       Avg       Max       Total
                         Freq      Flow      Flow      Volume
  Outfall Node           Pcnt       CMS       CMS    10^6 ltr
  -----------------------------------------------------------
  Out_to_WWTP           97.68     0.238     0.271       3.382
  -----------------------------------------------------------
  System                97.68     0.238     0.271       3.382
  
  
  ********************
  Link Flow Summary
  ********************
  
  -----------------------------------------------------------------------------
                                 Maximum  Time of Max   Maximum    Max/    Max/
                                  |Flow|   Occurrence   |Veloc|    Full    Full
  Link                 Type          CMS  days hr:min     m/sec    Flow   Depth
  -----------------------------------------------------------------------------
  C1                   CONDUIT     0.039     0  01:33      1.19    0.01    0.10
  C10                  CONDUIT     1.293     0  00:50      2.35    0.13    0.62
  C11                  CONDUIT     0.154     0  02:17      1.58    0.01    0.14
  C12                  CONDUIT     0.131     0  02:19      0.67    0.01    0.29
  C13                  CONDUIT     1.385     0  00:38      3.29    0.08    0.76
  C14                  CONDUIT     0.271     0  00:42      2.08    0.02    0.09
  C15                  CONDUIT     0.487     0  01:08      3.52    1.55    0.83
  C16                  CONDUIT     0.486     0  01:01      1.82    0.05    0.16
  C17                  CONDUIT     1.314     0  00:35      3.39    0.07    0.29
  C18                  CONDUIT     0.992     0  00:35      2.77    0.04    0.57
  C19                  CONDUIT     0.035     0  02:02      0.68    0.01    0.26
  C2                   CONDUIT     0.020     0  02:01      0.72    0.02    0.16
  C20                  CONDUIT     1.459     0  00:35      3.78    0.05    0.18
  C21                  CONDUIT     0.202     0  01:04      1.85    1.16    0.69
  C22                  CONDUIT     0.202     0  00:57      1.69    0.09    0.38
  C23                  CONDUIT     1.744     0  00:41      2.66    0.19    0.65
  C3                   CONDUIT     0.095     0  02:07      1.62    0.04    0.13
  C4                   CONDUIT     0.680     0  00:35      2.48    0.16    0.64
  C5                   CONDUIT     0.085     0  00:23      1.66    1.45    1.00
  C6                   CONDUIT     0.073     0  00:45      1.27    1.16    0.82
  C7                   CONDUIT     0.332     0  00:46      2.08    0.08    0.60
  C8                   CONDUIT     0.127     0  01:08      1.82    1.60    0.86
  C9                   CONDUIT     0.127     0  01:09      1.25    0.43    0.60
  V1                   ORIFICE     0.271     0  00:40                      1.00
  V2                   ORIFICE     0.035     0  00:56                      0.25
  V3                   ORIFICE     0.095     0  01:57                      0.50
  V4                   ORIFICE     0.020     0  01:16                      0.25
  V5                   ORIFICE     0.039     0  00:46                      1.00
  V6                   ORIFICE     0.131     0  00:47                      0.75
  
  
  ***************************
  Flow Classification Summary
  ***************************
  
  -------------------------------------------------------------------------------------
                      Adjusted    ---------- Fraction of Time in Flow Class ---------- 
                       /Actual         Up    Down  Sub   Sup   Up    Down  Norm  Inlet 
  Conduit               Length    Dry  Dry   Dry   Crit  Crit  Crit  Crit  Ltd   Ctrl  
  -------------------------------------------------------------------------------------
  C1                      1.00   0.00  0.00  0.00  0.01  0.99  0.00  0.00  0.89  0.00
  C10                     1.00   0.00  0.00  0.00  0.90  0.10  0.00  0.00  0.93  0.00
  C11                     1.00   0.00  0.00  0.00  0.55  0.44  0.00  0.00  1.00  0.00
  C12                     1.00   0.00  0.00  0.00  1.00  0.00  0.00  0.00  1.00  0.00
  C13                     1.00   0.00  0.00  0.00  0.87  0.13  0.00  0.00  0.19  0.00
  C14                     1.00   0.01  0.00  0.00  0.01  0.97  0.00  0.00  0.36  0.00
  C15                     1.00   0.02  0.00  0.00  0.00  0.98  0.00  0.00  0.00  0.00
  C16                     1.00   0.00  0.02  0.00  0.09  0.89  0.00  0.00  0.21  0.00
  C17                     1.00   0.00  0.00  0.00  0.56  0.44  0.00  0.00  0.92  0.00
  C18                     1.00   0.00  0.00  0.00  0.92  0.08  0.00  0.00  0.95  0.00
  C19                     1.00   0.00  0.00  0.00  1.00  0.00  0.00  0.00  1.00  0.00
  C2                      1.00   0.00  0.03  0.00  0.88  0.09  0.00  0.00  0.93  0.00
  C20                     1.00   0.00  0.00  0.00  0.34  0.66  0.00  0.00  0.95  0.00
  C21                     1.00   0.00  0.00  0.00  0.02  0.98  0.00  0.00  0.00  0.00
  C22                     1.00   0.00  0.00  0.00  0.75  0.25  0.00  0.00  1.00  0.00
  C23                     1.00   0.00  0.00  0.00  0.90  0.09  0.00  0.00  0.92  0.00
  C3                      1.00   0.00  0.01  0.00  0.05  0.94  0.00  0.00  0.06  0.00
  C4                      1.00   0.00  0.00  0.00  0.92  0.08  0.00  0.00  0.94  0.00
  C5                      1.00   0.00  0.00  0.00  0.92  0.08  0.00  0.00  0.66  0.00
  C6                      1.00   0.00  0.00  0.00  0.51  0.49  0.00  0.00  0.01  0.00
  C7                      1.00   0.00  0.00  0.00  0.89  0.11  0.00  0.00  0.92  0.00
  C8                      1.00   0.00  0.00  0.00  0.39  0.61  0.00  0.00  0.00  0.00
  C9                      1.00   0.00  0.00  0.00  1.00  0.00  0.00  0.00  1.00  0.00
  
  
  *************************
  Conduit Surcharge Summary
  *************************
  
  ----------------------------------------------------------------------------
                                                           Hours        Hours 
                         --------- Hours Full --------   Above Full   Capacity
  Conduit                Both Ends  Upstream  Dnstream   Normal Flow   Limited
  ----------------------------------------------------------------------------
  C10                         0.01      0.01      3.47      0.01         0.01
  C13                         0.01      0.01      3.27      0.01         0.01
  C15                         0.01      0.97      0.01      1.00         0.01
  C18                         0.01      0.01      3.42      0.01         0.01
  C21                         0.01      0.89      0.01      0.87         0.01
  C23                         0.01      0.01      3.53      0.01         0.01
  C4                          0.01      0.01      3.58      0.01         0.01
  C5                          0.95      0.99      1.07      1.00         0.93
  C6                          0.01      0.96      0.01      0.89         0.01
  C7                          0.01      0.01      3.44      0.01         0.01
  C8                          0.01      0.99      0.01      1.00         0.01
  

  Analysis begun on:  Tue Jan 11 10:40:47 2022
  Analysis ended on:  Tue Jan 11 10:40:48 2022
  Total elapsed time: 00:00:01