
  EPA STORM WATER MANAGEMENT MODEL - VERSION 5.1 (Build 5.1.013)
  --------------------------------------------------------------

  
  *********************************************************
  NOTE: The summary statistics displayed in this report are
  based on results found at every computational time step,  
  not just on results from each reporting time step.
  *********************************************************
  
  ****************
  Analysis Options
  ****************
  Flow Units ............... CMS
  Process Models:
    Rainfall/Runoff ........ YES
    RDII ................... NO
    Snowmelt ............... NO
    Groundwater ............ NO
    Flow Routing ........... YES
    Ponding Allowed ........ NO
    Water Quality .......... NO
  Infiltration Method ...... HORTON
  Flow Routing Method ...... DYNWAVE
  Surcharge Method ......... EXTRAN
  Starting Date ............ 01/01/2000 00:00:00
  Ending Date .............. 01/01/2000 16:00:00
  Antecedent Dry Days ...... 0.0
  Report Time Step ......... 00:05:00
  Wet Time Step ............ 00:05:00
  Dry Time Step ............ 00:05:00
  Routing Time Step ........ 30.00 sec
  Variable Time Step ....... YES
  Maximum Trials ........... 8
  Number of Threads ........ 1
  Head Tolerance ........... 0.001500 m
  
  
  *********************
  Control Actions Taken
  *********************
   01/01/2000: 00:00:00 Link V2 setting changed to   0.24 by Control BC
   01/01/2000: 00:00:00 Link V3 setting changed to   0.65 by Control BC
   01/01/2000: 00:00:00 Link V4 setting changed to   0.35 by Control BC
   01/01/2000: 00:00:00 Link V6 setting changed to   0.43 by Control BC

  
  **************************        Volume         Depth
  Runoff Quantity Continuity     hectare-m            mm
  **************************     ---------       -------
  Total Precipitation ......         2.445        13.571
  Evaporation Loss .........         0.000         0.000
  Infiltration Loss ........         0.000         0.000
  Surface Runoff ...........         2.441        13.545
  Final Storage ............         0.012         0.068
  Continuity Error (%) .....        -0.313
  
  
  **************************        Volume        Volume
  Flow Routing Continuity        hectare-m      10^6 ltr
  **************************     ---------     ---------
  Dry Weather Inflow .......         0.552         5.524
  Wet Weather Inflow .......         2.441        24.406
  Groundwater Inflow .......         0.000         0.000
  RDII Inflow ..............         0.000         0.000
  External Inflow ..........         0.000         0.000
  External Outflow .........         1.327        13.266
  Flooding Loss ............         1.020        10.200
  Evaporation Loss .........         0.000         0.000
  Exfiltration Loss ........         0.000         0.000
  Initial Stored Volume ....         0.000         0.000
  Final Stored Volume ......         0.545         5.452
  Continuity Error (%) .....         3.378
  
  
  *************************
  Highest Continuity Errors
  *************************
  Node T2 (16.43%)
  Node T3 (10.59%)
  Node T4 (9.20%)
  Node T5 (6.34%)
  Node T6 (5.00%)
  
  
  ***************************
  Time-Step Critical Elements
  ***************************
  Link C15 (21.61%)
  
  
  ********************************
  Highest Flow Instability Indexes
  ********************************
  Link C13 (10)
  Link C5 (1)
  
  
  *************************
  Routing Time Step Summary
  *************************
  Minimum Time Step           :     0.00 sec
  Average Time Step           :    27.05 sec
  Maximum Time Step           :    30.00 sec
  Percent in Steady State     :     0.00
  Average Iterations per Step :     2.23
  Percent Not Converging      :     1.27
  
  
  ***************************
  Subcatchment Runoff Summary
  ***************************
  
  ------------------------------------------------------------------------------------------------------------------------------
                            Total      Total      Total      Total     Imperv       Perv      Total       Total     Peak  Runoff
                           Precip      Runon       Evap      Infil     Runoff     Runoff     Runoff      Runoff   Runoff   Coeff
  Subcatchment                 mm         mm         mm         mm         mm         mm         mm    10^6 ltr      CMS
  ------------------------------------------------------------------------------------------------------------------------------
  SC01                      13.57       0.00       0.00       0.00      13.56       0.00      13.56        4.48     1.46   0.999
  SC010                     13.57       0.00       0.00       0.00      13.55       0.00      13.55        1.59     0.49   0.998
  SC02                      13.57       0.00       0.00       0.00      13.56       0.00      13.56        3.08     0.99   0.999
  SC03                      13.57       0.00       0.00       0.00      13.57       0.00      13.57        2.44     0.83   1.000
  SC04                      13.57       0.00       0.00       0.00      13.52       0.00      13.52        0.93     0.26   0.996
  SC05                      13.57       0.00       0.00       0.00      13.56       0.00      13.56        2.12     0.68   0.999
  SC06                      13.57       0.00       0.00       0.00      13.50       0.00      13.50        4.40     1.16   0.995
  SC07                      13.57       0.00       0.00       0.00      13.52       0.00      13.52        0.64     0.18   0.996
  SC08                      13.57       0.00       0.00       0.00      13.55       0.00      13.55        3.79     1.16   0.998
  SC09                      13.57       0.00       0.00       0.00      13.54       0.00      13.54        0.93     0.27   0.998
  
  
  ******************
  Node Depth Summary
  ******************
  
  ---------------------------------------------------------------------------------
                                 Average  Maximum  Maximum  Time of Max    Reported
                                   Depth    Depth      HGL   Occurrence   Max Depth
  Node                 Type       Meters   Meters   Meters  days hr:min      Meters
  ---------------------------------------------------------------------------------
  CSO10                JUNCTION     0.18     1.00    31.00     0  00:19        1.00
  CSO7                 JUNCTION     0.21     1.20    35.20     0  00:23        1.20
  CSO8                 JUNCTION     0.30     2.00    34.00     0  00:19        2.00
  CSO9                 JUNCTION     0.30     2.00    42.00     0  00:21        2.00
  J1                   JUNCTION     0.07     0.27    34.27     0  00:35        0.27
  J10                  JUNCTION     0.09     0.35    29.35     0  00:35        0.35
  J11                  JUNCTION     0.09     0.30    31.30     0  01:08        0.30
  J12                  JUNCTION     0.39     0.84    26.84     0  02:41        0.84
  J13                  JUNCTION     0.06     0.26    29.26     0  00:35        0.26
  J14                  JUNCTION     0.14     0.15    20.15     0  02:46        0.15
  J15                  JUNCTION     0.19     0.45    15.45     0  00:41        0.45
  J16                  JUNCTION     0.07     0.29    30.29     0  00:35        0.29
  J17                  JUNCTION     0.07     0.08    20.08     0  01:55        0.08
  J18                  JUNCTION     0.05     0.16    29.16     0  01:03        0.16
  J19                  JUNCTION     0.16     0.17     8.17     0  00:41        0.17
  J2                   JUNCTION     0.07     0.08    25.08     0  02:09        0.08
  J3                   JUNCTION     0.12     0.14    18.14     0  02:31        0.14
  J4                   JUNCTION     0.16     1.02    34.02     0  00:25        0.74
  J5                   JUNCTION     0.06     0.19    32.19     0  00:46        0.19
  J6                   JUNCTION     0.06     0.07    25.07     0  02:14        0.07
  J7                   JUNCTION     0.08     0.23    39.23     0  01:08        0.23
  J8                   JUNCTION     0.11     0.37    36.37     0  00:50        0.37
  J9                   JUNCTION     0.10     0.11    29.11     0  02:22        0.11
  Out_to_WWTP          OUTFALL      0.16     0.17     6.17     0  02:56        0.17
  T1                   STORAGE      3.78     5.00    15.00     0  00:40        5.00
  T2                   STORAGE      3.86     5.00    26.00     0  00:56        5.00
  T3                   STORAGE      3.97     4.85    26.85     0  02:37        4.84
  T4                   STORAGE      3.36     5.00    32.00     0  01:18        5.00
  T5                   STORAGE      3.11     5.00    32.00     0  00:46        5.00
  T6                   STORAGE      3.21     5.00    36.00     0  00:46        5.00
  
  
  *******************
  Node Inflow Summary
  *******************
  
  -------------------------------------------------------------------------------------------------
                                  Maximum  Maximum                  Lateral       Total        Flow
                                  Lateral    Total  Time of Max      Inflow      Inflow     Balance
                                   Inflow   Inflow   Occurrence      Volume      Volume       Error
  Node                 Type           CMS      CMS  days hr:min    10^6 ltr    10^6 ltr     Percent
  -------------------------------------------------------------------------------------------------
  CSO10                JUNCTION     0.492    0.492     0  00:40        1.79        1.79       0.010
  CSO7                 JUNCTION     0.180    0.180     0  00:45        1.05        1.05       0.060
  CSO8                 JUNCTION     1.163    1.163     0  00:40        4.17        4.17       0.012
  CSO9                 JUNCTION     0.276    0.276     0  00:40        1.21        1.21       0.035
  J1                   JUNCTION     0.681    0.681     0  00:35         2.9         2.9      -0.069
  J10                  JUNCTION     0.830    1.315     0  00:35        2.98        5.83      -0.026
  J11                  JUNCTION     0.000    0.487     0  01:08           0        2.85       0.281
  J12                  JUNCTION     0.000    1.355     0  00:36           0        9.53       0.059
  J13                  JUNCTION     0.993    0.993     0  00:35        3.74        3.74      -0.294
  J14                  JUNCTION     0.000    0.122     0  02:37           0        6.35       0.101
  J15                  JUNCTION     0.000    1.766     0  00:39           0        17.5       0.405
  J16                  JUNCTION     1.461    1.461     0  00:35        5.25        5.25      -0.065
  J17                  JUNCTION     0.000    0.033     0  00:56           0        1.66       0.404
  J18                  JUNCTION     0.000    0.202     0  00:57           0        1.22      -0.003
  J19                  JUNCTION     0.000    0.271     0  00:40           0        13.3       0.078
  J2                   JUNCTION     0.000    0.039     0  00:46           0        1.72       0.207
  J3                   JUNCTION     0.000    0.189     0  02:20           0        9.36       0.379
  J4                   JUNCTION     0.000    0.085     0  00:23           0       0.836       0.384
  J5                   JUNCTION     0.260    0.333     0  00:45        1.11        1.95      -0.017
  J6                   JUNCTION     0.000    0.028     0  01:18           0        1.31       0.239
  J7                   JUNCTION     0.000    0.127     0  01:08           0       0.927       0.339
  J8                   JUNCTION     1.167    1.295     0  00:50        5.72        6.65      -0.018
  J9                   JUNCTION     0.000    0.075     0  00:46           0        3.36       0.488
  Out_to_WWTP          OUTFALL      0.000    0.271     0  00:41           0        13.3       0.000
  T1                   STORAGE      0.000    1.760     0  00:41           0        17.4       2.896
  T2                   STORAGE      0.000    0.992     0  00:35           0        3.75      19.653
  T3                   STORAGE      0.000    1.350     0  00:38           0        9.52      11.848
  T4                   STORAGE      0.000    0.332     0  00:46           0        1.95      10.137
  T5                   STORAGE      0.000    0.680     0  00:35           0        2.91       6.769
  T6                   STORAGE      0.000    1.293     0  00:50           0        6.65       5.267
  
  
  **********************
  Node Surcharge Summary
  **********************
  
  Surcharging occurs when water rises above the top of the highest conduit.
  ---------------------------------------------------------------------
                                               Max. Height   Min. Depth
                                   Hours       Above Crown    Below Rim
  Node                 Type      Surcharged         Meters       Meters
  ---------------------------------------------------------------------
  CSO10                JUNCTION        0.88          0.560        0.000
  CSO7                 JUNCTION        1.00          0.945        0.000
  CSO8                 JUNCTION        0.98          1.547        0.000
  CSO9                 JUNCTION        0.99          1.682        0.000
  J4                   JUNCTION        0.96          0.717        0.983
  
  
  *********************
  Node Flooding Summary
  *********************
  
  Flooding refers to all water that overflows a node, whether it ponds or not.
  --------------------------------------------------------------------------
                                                             Total   Maximum
                                 Maximum   Time of Max       Flood    Ponded
                        Hours       Rate    Occurrence      Volume     Depth
  Node                 Flooded       CMS   days hr:min    10^6 ltr    Meters
  --------------------------------------------------------------------------
  CSO10                   0.82     0.290      0  00:40       0.565     0.000
  CSO7                    0.87     0.107      0  00:45       0.214     0.000
  CSO8                    0.82     0.677      0  00:40       1.314     0.000
  CSO9                    0.79     0.148      0  00:40       0.282     0.000
  T1                      1.99     1.490      0  00:41       3.212     0.000
  T2                      1.50     0.756      0  00:56       0.845     0.000
  T4                      1.24     0.132      0  01:18       0.221     0.000
  T5                      1.41     0.603      0  00:46       0.819     0.000
  T6                      2.01     1.217      0  00:50       2.722     0.000
  
  
  **********************
  Storage Volume Summary
  **********************
  
  --------------------------------------------------------------------------------------------------
                         Average     Avg  Evap Exfil       Maximum     Max    Time of Max    Maximum
                          Volume    Pcnt  Pcnt  Pcnt        Volume    Pcnt     Occurrence    Outflow
  Storage Unit           1000 m3    Full  Loss  Loss       1000 m3    Full    days hr:min        CMS
  --------------------------------------------------------------------------------------------------
  T1                       0.529      76     0     0         0.700     100       0  00:40      0.271
  T2                       0.772      77     0     0         1.000     100       0  00:56      0.033
  T3                       2.066      79     0     0         2.522      97       0  02:37      0.287
  T4                       0.336      67     0     0         0.500     100       0  01:18      0.028
  T5                       0.311      62     0     0         0.500     100       0  00:46      0.039
  T6                       0.385      64     0     0         0.600     100       0  00:46      0.075
  
  
  ***********************
  Outfall Loading Summary
  ***********************
  
  -----------------------------------------------------------
                         Flow       Avg       Max       Total
                         Freq      Flow      Flow      Volume
  Outfall Node           Pcnt       CMS       CMS    10^6 ltr
  -----------------------------------------------------------
  Out_to_WWTP           99.25     0.232     0.271      13.266
  -----------------------------------------------------------
  System                99.25     0.232     0.271      13.266
  
  
  ********************
  Link Flow Summary
  ********************
  
  -----------------------------------------------------------------------------
                                 Maximum  Time of Max   Maximum    Max/    Max/
                                  |Flow|   Occurrence   |Veloc|    Full    Full
  Link                 Type          CMS  days hr:min     m/sec    Flow   Depth
  -----------------------------------------------------------------------------
  C1                   CONDUIT     0.039     0  01:33      1.17    0.01    0.11
  C10                  CONDUIT     1.293     0  00:50      2.35    0.13    0.62
  C11                  CONDUIT     0.189     0  02:31      1.72    0.01    0.14
  C12                  CONDUIT     0.075     0  02:22      0.95    0.01    0.24
  C13                  CONDUIT     1.350     0  00:38      3.29    0.08    0.71
  C14                  CONDUIT     0.271     0  00:41      2.08    0.02    0.09
  C15                  CONDUIT     0.487     0  01:08      3.52    1.55    0.83
  C16                  CONDUIT     0.486     0  01:01      1.82    0.05    0.16
  C17                  CONDUIT     1.314     0  00:35      3.41    0.07    0.23
  C18                  CONDUIT     0.992     0  00:35      2.77    0.04    0.57
  C19                  CONDUIT     0.033     0  01:55      0.61    0.01    0.26
  C2                   CONDUIT     0.028     0  02:02      0.86    0.03    0.17
  C20                  CONDUIT     1.459     0  00:35      3.77    0.05    0.18
  C21                  CONDUIT     0.202     0  00:57      1.85    1.16    0.69
  C22                  CONDUIT     0.202     0  00:57      1.69    0.09    0.38
  C23                  CONDUIT     1.760     0  00:41      2.66    0.19    0.65
  C3                   CONDUIT     0.122     0  02:38      1.78    0.05    0.14
  C4                   CONDUIT     0.680     0  00:35      2.48    0.16    0.64
  C5                   CONDUIT     0.085     0  00:23      1.66    1.45    1.00
  C6                   CONDUIT     0.073     0  00:45      1.27    1.16    0.82
  C7                   CONDUIT     0.332     0  00:46      2.10    0.08    0.60
  C8                   CONDUIT     0.127     0  01:08      1.82    1.60    0.86
  C9                   CONDUIT     0.127     0  01:09      1.25    0.43    0.60
  V1                   ORIFICE     0.271     0  00:40                      1.00
  V2                   ORIFICE     0.033     0  00:56                      0.24
  V3                   ORIFICE     0.122     0  02:37                      0.65
  V4                   ORIFICE     0.028     0  01:18                      0.35
  V5                   ORIFICE     0.039     0  00:46                      1.00
  V6                   ORIFICE     0.075     0  00:46                      0.43
  
  
  ***************************
  Flow Classification Summary
  ***************************
  
  -------------------------------------------------------------------------------------
                      Adjusted    ---------- Fraction of Time in Flow Class ---------- 
                       /Actual         Up    Down  Sub   Sup   Up    Down  Norm  Inlet 
  Conduit               Length    Dry  Dry   Dry   Crit  Crit  Crit  Crit  Ltd   Ctrl  
  -------------------------------------------------------------------------------------
  C1                      1.00   0.00  0.00  0.00  0.72  0.27  0.00  0.00  0.97  0.00
  C10                     1.00   0.00  0.00  0.00  0.97  0.03  0.00  0.00  0.98  0.00
  C11                     1.00   0.00  0.00  0.00  0.16  0.84  0.00  0.00  1.00  0.00
  C12                     1.00   0.00  0.00  0.00  0.76  0.23  0.00  0.00  1.00  0.00
  C13                     1.00   0.00  0.00  0.00  0.96  0.04  0.00  0.00  0.32  0.00
  C14                     1.00   0.00  0.00  0.00  0.00  0.99  0.00  0.00  0.36  0.00
  C15                     1.00   0.01  0.00  0.00  0.00  0.99  0.00  0.00  0.00  0.00
  C16                     1.00   0.00  0.01  0.00  0.71  0.29  0.00  0.00  0.73  0.00
  C17                     1.00   0.00  0.00  0.00  0.85  0.15  0.00  0.00  0.98  0.00
  C18                     1.00   0.00  0.00  0.00  0.97  0.03  0.00  0.00  0.99  0.00
  C19                     1.00   0.00  0.00  0.00  1.00  0.00  0.00  0.00  1.00  0.00
  C2                      1.00   0.00  0.00  0.00  0.84  0.16  0.00  0.00  0.99  0.00
  C20                     1.00   0.00  0.00  0.00  0.79  0.21  0.00  0.00  0.99  0.00
  C21                     1.00   0.00  0.00  0.00  0.01  0.99  0.00  0.00  0.00  0.00
  C22                     1.00   0.00  0.00  0.00  0.93  0.07  0.00  0.00  1.00  0.00
  C23                     1.00   0.00  0.00  0.00  0.97  0.03  0.00  0.00  0.98  0.00
  C3                      1.00   0.00  0.00  0.00  0.02  0.98  0.00  0.00  0.01  0.00
  C4                      1.00   0.00  0.00  0.00  0.97  0.03  0.00  0.00  0.99  0.00
  C5                      1.00   0.00  0.00  0.00  0.95  0.05  0.00  0.00  0.92  0.00
  C6                      1.00   0.00  0.00  0.00  0.16  0.84  0.00  0.00  0.00  0.00
  C7                      1.00   0.00  0.00  0.00  0.97  0.03  0.00  0.00  0.98  0.00
  C8                      1.00   0.00  0.00  0.00  0.13  0.87  0.00  0.00  0.00  0.00
  C9                      1.00   0.00  0.00  0.00  1.00  0.00  0.00  0.00  1.00  0.00
  
  
  *************************
  Conduit Surcharge Summary
  *************************
  
  ----------------------------------------------------------------------------
                                                           Hours        Hours 
                         --------- Hours Full --------   Above Full   Capacity
  Conduit                Both Ends  Upstream  Dnstream   Normal Flow   Limited
  ----------------------------------------------------------------------------
  C10                         0.01      0.01     15.48      0.01         0.01
  C13                         0.01      0.01     15.26      0.01         0.01
  C15                         0.01      0.97      0.01      1.00         0.01
  C18                         0.01      0.01     15.42      0.01         0.01
  C21                         0.01      0.89      0.01      0.87         0.01
  C23                         0.01      0.01     15.53      0.01         0.01
  C4                          0.01      0.01     15.58      0.01         0.01
  C5                          0.95      0.99      1.07      1.00         0.93
  C6                          0.01      0.96      0.01      0.89         0.01
  C7                          0.01      0.01     15.43      0.01         0.01
  C8                          0.01      0.99      0.01      1.00         0.01
  

  Analysis begun on:  Mon Jan 10 15:14:18 2022
  Analysis ended on:  Mon Jan 10 15:14:18 2022
  Total elapsed time: < 1 sec