
  EPA STORM WATER MANAGEMENT MODEL - VERSION 5.1 (Build 5.1.013)
  --------------------------------------------------------------

  
  *********************************************************
  NOTE: The summary statistics displayed in this report are
  based on results found at every computational time step,  
  not just on results from each reporting time step.
  *********************************************************
  
  ****************
  Analysis Options
  ****************
  Flow Units ............... CMS
  Process Models:
    Rainfall/Runoff ........ YES
    RDII ................... NO
    Snowmelt ............... NO
    Groundwater ............ NO
    Flow Routing ........... YES
    Ponding Allowed ........ NO
    Water Quality .......... NO
  Infiltration Method ...... HORTON
  Flow Routing Method ...... DYNWAVE
  Surcharge Method ......... EXTRAN
  Starting Date ............ 01/01/2000 00:00:00
  Ending Date .............. 01/01/2000 04:00:00
  Antecedent Dry Days ...... 0.0
  Report Time Step ......... 00:05:00
  Wet Time Step ............ 00:05:00
  Dry Time Step ............ 00:05:00
  Routing Time Step ........ 30.00 sec
  Variable Time Step ....... YES
  Maximum Trials ........... 8
  Number of Threads ........ 1
  Head Tolerance ........... 0.001500 m
  
  
  *********************
  Control Actions Taken
  *********************
   01/01/2000: 00:00:00 Link V2 setting changed to   0.24 by Control EFDO2T2
   01/01/2000: 00:00:00 Link V3 setting changed to   0.65 by Control EFDO2T3
   01/01/2000: 00:00:00 Link V4 setting changed to   0.35 by Control EFDO2T4
   01/01/2000: 00:00:00 Link V6 setting changed to   0.43 by Control EFDO2T6
   01/01/2000: 00:05:00 Link V6 setting changed to   1.00 by Control EFDO2T6
   01/01/2000: 00:10:00 Link V6 setting changed to   0.43 by Control EFDO2T6
   01/01/2000: 00:10:00 Link V2 setting changed to   1.00 by Control EFDO2T2
   01/01/2000: 00:30:00 Link V2 setting changed to   0.24 by Control EFDO2T2
   01/01/2000: 00:30:00 Link V6 setting changed to   1.00 by Control EFDO2T6
   01/01/2000: 01:00:00 Link V6 setting changed to   0.43 by Control EFDO2T6
   01/01/2000: 02:35:00 Link V6 setting changed to   1.00 by Control EFDO2T6
   01/01/2000: 02:40:00 Link V4 setting changed to   1.00 by Control EFDO2T4
   01/01/2000: 02:40:00 Link V6 setting changed to   0.43 by Control EFDO2T6
   01/01/2000: 02:45:00 Link V2 setting changed to   1.00 by Control EFDO2T2
   01/01/2000: 02:45:00 Link V4 setting changed to   0.35 by Control EFDO2T4
   01/01/2000: 02:50:00 Link V2 setting changed to   0.24 by Control EFDO2T2
   01/01/2000: 02:50:00 Link V3 setting changed to   1.00 by Control EFDO2T3
   01/01/2000: 02:55:00 Link V3 setting changed to   0.65 by Control EFDO2T3
   01/01/2000: 02:55:00 Link V6 setting changed to   1.00 by Control EFDO2T6
   01/01/2000: 03:00:00 Link V3 setting changed to   1.00 by Control EFDO2T3
   01/01/2000: 03:00:00 Link V6 setting changed to   0.43 by Control EFDO2T6

  
  **************************        Volume         Depth
  Runoff Quantity Continuity     hectare-m            mm
  **************************     ---------       -------
  Total Precipitation ......         2.445        13.571
  Evaporation Loss .........         0.000         0.000
  Infiltration Loss ........         0.000         0.000
  Surface Runoff ...........         2.410        13.374
  Final Storage ............         0.044         0.243
  Continuity Error (%) .....        -0.341
  
  
  **************************        Volume        Volume
  Flow Routing Continuity        hectare-m      10^6 ltr
  **************************     ---------     ---------
  Dry Weather Inflow .......         0.027         0.268
  Wet Weather Inflow .......         2.409        24.089
  Groundwater Inflow .......         0.000         0.000
  RDII Inflow ..............         0.000         0.000
  External Inflow ..........         0.000         0.000
  External Outflow .........         0.344         3.441
  Flooding Loss ............         1.020        10.200
  Evaporation Loss .........         0.000         0.000
  Exfiltration Loss ........         0.000         0.000
  Initial Stored Volume ....         0.000         0.000
  Final Stored Volume ......         0.801         8.010
  Continuity Error (%) .....        11.110
  
  
  *************************
  Highest Continuity Errors
  *************************
  Node T2 (28.50%)
  Node T4 (24.39%)
  Node T3 (23.18%)
  Node T5 (19.19%)
  Node T6 (14.90%)
  
  
  ***************************
  Time-Step Critical Elements
  ***************************
  Link C15 (66.76%)
  
  
  ********************************
  Highest Flow Instability Indexes
  ********************************
  Link C13 (9)
  Link C3 (4)
  Link V3 (3)
  Link C5 (2)
  Link C11 (2)
  
  
  *************************
  Routing Time Step Summary
  *************************
  Minimum Time Step           :     0.00 sec
  Average Time Step           :    20.90 sec
  Maximum Time Step           :    30.00 sec
  Percent in Steady State     :     0.00
  Average Iterations per Step :     2.73
  Percent Not Converging      :     3.92
  
  
  ***************************
  Subcatchment Runoff Summary
  ***************************
  
  ------------------------------------------------------------------------------------------------------------------------------
                            Total      Total      Total      Total     Imperv       Perv      Total       Total     Peak  Runoff
                           Precip      Runon       Evap      Infil     Runoff     Runoff     Runoff      Runoff   Runoff   Coeff
  Subcatchment                 mm         mm         mm         mm         mm         mm         mm    10^6 ltr      CMS
  ------------------------------------------------------------------------------------------------------------------------------
  SC01                      13.57       0.00       0.00       0.00      13.48       0.00      13.48        4.45     1.46   0.993
  SC010                     13.57       0.00       0.00       0.00      13.41       0.00      13.41        1.58     0.49   0.988
  SC02                      13.57       0.00       0.00       0.00      13.46       0.00      13.46        3.06     0.99   0.992
  SC03                      13.57       0.00       0.00       0.00      13.53       0.00      13.53        2.43     0.83   0.997
  SC04                      13.57       0.00       0.00       0.00      13.22       0.00      13.22        0.91     0.26   0.974
  SC05                      13.57       0.00       0.00       0.00      13.46       0.00      13.46        2.10     0.68   0.992
  SC06                      13.57       0.00       0.00       0.00      13.11       0.00      13.11        4.27     1.16   0.966
  SC07                      13.57       0.00       0.00       0.00      13.23       0.00      13.23        0.63     0.18   0.975
  SC08                      13.57       0.00       0.00       0.00      13.40       0.00      13.40        3.75     1.16   0.987
  SC09                      13.57       0.00       0.00       0.00      13.34       0.00      13.34        0.92     0.27   0.983
  
  
  ******************
  Node Depth Summary
  ******************
  
  ---------------------------------------------------------------------------------
                                 Average  Maximum  Maximum  Time of Max    Reported
                                   Depth    Depth      HGL   Occurrence   Max Depth
  Node                 Type       Meters   Meters   Meters  days hr:min      Meters
  ---------------------------------------------------------------------------------
  CSO10                JUNCTION     0.44     1.00    31.00     0  00:19        1.00
  CSO7                 JUNCTION     0.50     1.20    35.20     0  00:23        1.20
  CSO8                 JUNCTION     0.82     2.00    34.00     0  00:19        2.00
  CSO9                 JUNCTION     0.78     2.00    42.00     0  00:21        2.00
  J1                   JUNCTION     0.13     0.27    34.27     0  00:35        0.27
  J10                  JUNCTION     0.18     0.35    29.35     0  00:35        0.35
  J11                  JUNCTION     0.18     0.30    31.30     0  01:08        0.30
  J12                  JUNCTION     0.57     0.94    26.94     0  02:46        0.93
  J13                  JUNCTION     0.12     0.26    29.26     0  00:35        0.26
  J14                  JUNCTION     0.13     0.19    20.19     0  02:52        0.19
  J15                  JUNCTION     0.27     0.45    15.45     0  00:41        0.45
  J16                  JUNCTION     0.14     0.29    30.29     0  00:35        0.29
  J17                  JUNCTION     0.07     0.15    20.15     0  02:50        0.15
  J18                  JUNCTION     0.10     0.16    29.16     0  01:03        0.16
  J19                  JUNCTION     0.15     0.17     8.17     0  00:41        0.17
  J2                   JUNCTION     0.07     0.08    25.08     0  01:35        0.08
  J3                   JUNCTION     0.12     0.16    18.16     0  03:10        0.16
  J4                   JUNCTION     0.31     1.02    34.02     0  00:25        0.74
  J5                   JUNCTION     0.11     0.19    32.19     0  00:46        0.19
  J6                   JUNCTION     0.06     0.12    25.12     0  02:45        0.12
  J7                   JUNCTION     0.14     0.23    39.23     0  01:08        0.23
  J8                   JUNCTION     0.20     0.37    36.37     0  00:50        0.37
  J9                   JUNCTION     0.11     0.16    29.16     0  01:00        0.16
  Out_to_WWTP          OUTFALL      0.15     0.17     6.17     0  00:40        0.17
  T1                   STORAGE      4.24     5.00    15.00     0  00:40        5.00
  T2                   STORAGE      3.96     5.00    26.00     0  00:56        5.00
  T3                   STORAGE      3.52     4.94    26.94     0  02:42        4.94
  T4                   STORAGE      3.61     5.00    32.00     0  01:18        5.00
  T5                   STORAGE      4.06     5.00    32.00     0  00:46        5.00
  T6                   STORAGE      4.03     5.00    36.00     0  00:47        5.00
  
  
  *******************
  Node Inflow Summary
  *******************
  
  -------------------------------------------------------------------------------------------------
                                  Maximum  Maximum                  Lateral       Total        Flow
                                  Lateral    Total  Time of Max      Inflow      Inflow     Balance
                                   Inflow   Inflow   Occurrence      Volume      Volume       Error
  Node                 Type           CMS      CMS  days hr:min    10^6 ltr    10^6 ltr     Percent
  -------------------------------------------------------------------------------------------------
  CSO10                JUNCTION     0.492    0.492     0  00:40        1.59        1.59       0.010
  CSO7                 JUNCTION     0.180    0.180     0  00:45       0.649       0.649       0.070
  CSO8                 JUNCTION     1.163    1.163     0  00:40        3.75        3.75       0.008
  CSO9                 JUNCTION     0.276    0.276     0  00:40       0.935       0.935       0.033
  J1                   JUNCTION     0.681    0.681     0  00:35        2.14        2.14      -0.156
  J10                  JUNCTION     0.830    1.315     0  00:35        2.46        4.89      -0.100
  J11                  JUNCTION     0.000    0.487     0  01:08           0        2.44       0.287
  J12                  JUNCTION     0.000    1.414     0  00:38           0        6.27       8.898
  J13                  JUNCTION     0.993    0.993     0  00:35         3.1         3.1      -0.405
  J14                  JUNCTION     0.000    0.189     0  02:50           0        1.71       0.565
  J15                  JUNCTION     0.000    1.769     0  00:36           0        8.47       1.172
  J16                  JUNCTION     1.461    1.461     0  00:35        4.48        4.48      -0.101
  J17                  JUNCTION     0.000    0.140     0  02:45           0       0.477       1.323
  J18                  JUNCTION     0.000    0.202     0  00:57           0        1.02      -0.006
  J19                  JUNCTION     0.000    0.271     0  00:40           0        3.45       0.368
  J2                   JUNCTION     0.000    0.039     0  00:46           0       0.492       1.023
  J3                   JUNCTION     0.000    0.256     0  02:53           0        2.54       1.967
  J4                   JUNCTION     0.000    0.085     0  00:23           0       0.435       0.438
  J5                   JUNCTION     0.260    0.333     0  00:45       0.922        1.35      -0.068
  J6                   JUNCTION     0.000    0.080     0  02:40           0       0.351       1.119
  J7                   JUNCTION     0.000    0.127     0  01:08           0       0.652       0.383
  J8                   JUNCTION     1.167    1.295     0  00:50        4.34        4.99      -0.032
  J9                   JUNCTION     0.000    0.175     0  00:47           0        1.15       1.925
  Out_to_WWTP          OUTFALL      0.000    0.271     0  00:41           0        3.44       0.000
  T1                   STORAGE      0.000    1.763     0  00:41           0        8.37      10.712
  T2                   STORAGE      0.000    0.992     0  00:35           0        3.11      39.860
  T3                   STORAGE      0.000    1.411     0  00:41           0        5.76      30.171
  T4                   STORAGE      0.000    0.332     0  00:46           0        1.36      32.263
  T5                   STORAGE      0.000    0.680     0  00:35           0        2.14      23.749
  T6                   STORAGE      0.000    1.293     0  00:50           0        4.99      17.510
  
  
  **********************
  Node Surcharge Summary
  **********************
  
  Surcharging occurs when water rises above the top of the highest conduit.
  ---------------------------------------------------------------------
                                               Max. Height   Min. Depth
                                   Hours       Above Crown    Below Rim
  Node                 Type      Surcharged         Meters       Meters
  ---------------------------------------------------------------------
  CSO10                JUNCTION        0.88          0.560        0.000
  CSO7                 JUNCTION        1.00          0.945        0.000
  CSO8                 JUNCTION        0.98          1.547        0.000
  CSO9                 JUNCTION        0.99          1.682        0.000
  J4                   JUNCTION        0.96          0.717        0.983
  
  
  *********************
  Node Flooding Summary
  *********************
  
  Flooding refers to all water that overflows a node, whether it ponds or not.
  --------------------------------------------------------------------------
                                                             Total   Maximum
                                 Maximum   Time of Max       Flood    Ponded
                        Hours       Rate    Occurrence      Volume     Depth
  Node                 Flooded       CMS   days hr:min    10^6 ltr    Meters
  --------------------------------------------------------------------------
  CSO10                   0.82     0.290      0  00:40       0.565     0.000
  CSO7                    0.87     0.107      0  00:45       0.214     0.000
  CSO8                    0.82     0.677      0  00:40       1.314     0.000
  CSO9                    0.79     0.148      0  00:40       0.282     0.000
  T1                      3.27     1.492      0  00:41       3.405     0.000
  T2                      1.49     0.735      0  00:56       0.815     0.000
  T4                      1.24     0.132      0  01:18       0.221     0.000
  T5                      1.41     0.603      0  00:46       0.819     0.000
  T6                      1.80     1.118      0  00:50       2.558     0.000
  
  
  **********************
  Storage Volume Summary
  **********************
  
  --------------------------------------------------------------------------------------------------
                         Average     Avg  Evap Exfil       Maximum     Max    Time of Max    Maximum
                          Volume    Pcnt  Pcnt  Pcnt        Volume    Pcnt     Occurrence    Outflow
  Storage Unit           1000 m3    Full  Loss  Loss       1000 m3    Full    days hr:min        CMS
  --------------------------------------------------------------------------------------------------
  T1                       0.594      85     0     0         0.700     100       0  00:40      0.271
  T2                       0.792      79     0     0         1.000     100       0  00:56      0.140
  T3                       1.830      70     0     0         2.571      99       0  02:42      0.301
  T4                       0.361      72     0     0         0.500     100       0  01:18      0.080
  T5                       0.406      81     0     0         0.500     100       0  00:46      0.039
  T6                       0.484      81     0     0         0.600     100       0  00:47      0.175
  
  
  ***********************
  Outfall Loading Summary
  ***********************
  
  -----------------------------------------------------------
                         Flow       Avg       Max       Total
                         Freq      Flow      Flow      Volume
  Outfall Node           Pcnt       CMS       CMS    10^6 ltr
  -----------------------------------------------------------
  Out_to_WWTP           97.68     0.241     0.271       3.440
  -----------------------------------------------------------
  System                97.68     0.241     0.271       3.440
  
  
  ********************
  Link Flow Summary
  ********************
  
  -----------------------------------------------------------------------------
                                 Maximum  Time of Max   Maximum    Max/    Max/
                                  |Flow|   Occurrence   |Veloc|    Full    Full
  Link                 Type          CMS  days hr:min     m/sec    Flow   Depth
  -----------------------------------------------------------------------------
  C1                   CONDUIT     0.039     0  01:34      1.17    0.01    0.12
  C10                  CONDUIT     1.293     0  00:50      2.35    0.13    0.62
  C11                  CONDUIT     0.253     0  03:10      1.93    0.01    0.14
  C12                  CONDUIT     0.175     0  01:00      0.72    0.01    0.27
  C13                  CONDUIT     1.411     0  00:41      3.29    0.08    0.73
  C14                  CONDUIT     0.271     0  00:41      2.08    0.02    0.09
  C15                  CONDUIT     0.487     0  01:08      3.52    1.55    0.83
  C16                  CONDUIT     0.486     0  01:01      1.82    0.05    0.16
  C17                  CONDUIT     1.314     0  00:35      3.41    0.07    0.25
  C18                  CONDUIT     0.992     0  00:35      2.80    0.04    0.57
  C19                  CONDUIT     0.138     0  02:50      1.50    0.05    0.26
  C2                   CONDUIT     0.079     0  02:45      1.64    0.09    0.23
  C20                  CONDUIT     1.459     0  00:35      3.72    0.05    0.18
  C21                  CONDUIT     0.202     0  00:57      1.85    1.16    0.69
  C22                  CONDUIT     0.202     0  00:57      1.67    0.09    0.38
  C23                  CONDUIT     1.763     0  00:41      2.67    0.19    0.65
  C3                   CONDUIT     0.190     0  02:53      2.15    0.07    0.17
  C4                   CONDUIT     0.680     0  00:35      2.48    0.16    0.64
  C5                   CONDUIT     0.085     0  00:23      1.66    1.45    1.00
  C6                   CONDUIT     0.073     0  00:45      1.27    1.16    0.82
  C7                   CONDUIT     0.332     0  00:46      2.10    0.08    0.60
  C8                   CONDUIT     0.127     0  01:08      1.82    1.60    0.86
  C9                   CONDUIT     0.127     0  01:09      1.25    0.43    0.60
  V1                   ORIFICE     0.271     0  00:40                      1.00
  V2                   ORIFICE     0.140     0  02:45                      1.00
  V3                   ORIFICE     0.189     0  02:50                      1.00
  V4                   ORIFICE     0.080     0  02:40                      1.00
  V5                   ORIFICE     0.039     0  00:46                      1.00
  V6                   ORIFICE     0.175     0  00:47                      1.00
  
  
  ***************************
  Flow Classification Summary
  ***************************
  
  -------------------------------------------------------------------------------------
                      Adjusted    ---------- Fraction of Time in Flow Class ---------- 
                       /Actual         Up    Down  Sub   Sup   Up    Down  Norm  Inlet 
  Conduit               Length    Dry  Dry   Dry   Crit  Crit  Crit  Crit  Ltd   Ctrl  
  -------------------------------------------------------------------------------------
  C1                      1.00   0.00  0.00  0.00  0.24  0.76  0.00  0.00  0.89  0.00
  C10                     1.00   0.00  0.00  0.00  0.91  0.09  0.00  0.00  0.93  0.00
  C11                     1.00   0.00  0.00  0.00  0.48  0.51  0.00  0.00  1.00  0.00
  C12                     1.00   0.00  0.00  0.00  1.00  0.00  0.00  0.00  1.00  0.00
  C13                     1.00   0.00  0.00  0.00  0.87  0.13  0.00  0.00  0.19  0.00
  C14                     1.00   0.01  0.00  0.00  0.01  0.97  0.00  0.00  0.00  0.00
  C15                     1.00   0.02  0.00  0.00  0.00  0.98  0.00  0.00  0.00  0.00
  C16                     1.00   0.00  0.02  0.00  0.09  0.89  0.00  0.00  0.21  0.00
  C17                     1.00   0.00  0.00  0.00  0.55  0.45  0.00  0.00  0.92  0.00
  C18                     1.00   0.00  0.00  0.00  0.91  0.09  0.00  0.00  0.95  0.00
  C19                     1.00   0.00  0.00  0.00  0.98  0.01  0.00  0.00  1.00  0.00
  C2                      1.00   0.00  0.00  0.00  0.66  0.33  0.00  0.00  0.95  0.00
  C20                     1.00   0.00  0.00  0.00  0.36  0.64  0.00  0.00  0.95  0.00
  C21                     1.00   0.00  0.00  0.00  0.02  0.98  0.00  0.00  0.00  0.00
  C22                     1.00   0.00  0.00  0.00  0.80  0.20  0.00  0.00  1.00  0.00
  C23                     1.00   0.00  0.00  0.00  0.91  0.09  0.00  0.00  0.92  0.00
  C3                      1.00   0.00  0.01  0.00  0.05  0.94  0.00  0.00  0.07  0.00
  C4                      1.00   0.00  0.00  0.00  0.92  0.08  0.00  0.00  0.94  0.00
  C5                      1.00   0.00  0.00  0.00  0.92  0.08  0.00  0.00  0.66  0.00
  C6                      1.00   0.00  0.00  0.00  0.51  0.49  0.00  0.00  0.01  0.00
  C7                      1.00   0.00  0.00  0.00  0.89  0.11  0.00  0.00  0.92  0.00
  C8                      1.00   0.00  0.00  0.00  0.39  0.61  0.00  0.00  0.00  0.00
  C9                      1.00   0.00  0.00  0.00  1.00  0.00  0.00  0.00  1.00  0.00
  
  
  *************************
  Conduit Surcharge Summary
  *************************
  
  ----------------------------------------------------------------------------
                                                           Hours        Hours 
                         --------- Hours Full --------   Above Full   Capacity
  Conduit                Both Ends  Upstream  Dnstream   Normal Flow   Limited
  ----------------------------------------------------------------------------
  C10                         0.01      0.01      3.48      0.01         0.01
  C13                         0.01      0.01      3.27      0.01         0.01
  C15                         0.01      0.97      0.01      1.00         0.01
  C18                         0.01      0.01      3.41      0.01         0.01
  C21                         0.01      0.89      0.01      0.87         0.01
  C23                         0.01      0.01      3.53      0.01         0.01
  C4                          0.01      0.01      3.58      0.01         0.01
  C5                          0.95      0.99      1.07      1.00         0.93
  C6                          0.01      0.96      0.01      0.89         0.01
  C7                          0.01      0.01      3.43      0.01         0.01
  C8                          0.01      0.99      0.01      1.00         0.01
  

  Analysis begun on:  Mon Jan 10 15:14:18 2022
  Analysis ended on:  Mon Jan 10 15:14:19 2022
  Total elapsed time: 00:00:01