
  EPA STORM WATER MANAGEMENT MODEL - VERSION 5.1 (Build 5.1.015)
  --------------------------------------------------------------

  
  *********************************************************
  NOTE: The summary statistics displayed in this report are
  based on results found at every computational time step,  
  not just on results from each reporting time step.
  *********************************************************
  
  ****************
  Analysis Options
  ****************
  Flow Units ............... CMS
  Process Models:
    Rainfall/Runoff ........ YES
    RDII ................... NO
    Snowmelt ............... NO
    Groundwater ............ NO
    Flow Routing ........... YES
    Ponding Allowed ........ NO
    Water Quality .......... NO
  Infiltration Method ...... HORTON
  Flow Routing Method ...... DYNWAVE
  Surcharge Method ......... EXTRAN
  Starting Date ............ 01/01/2000 00:00:00
  Ending Date .............. 01/01/2000 04:00:00
  Antecedent Dry Days ...... 0.0
  Report Time Step ......... 00:05:00
  Wet Time Step ............ 00:05:00
  Dry Time Step ............ 00:05:00
  Routing Time Step ........ 30.00 sec
  Variable Time Step ....... YES
  Maximum Trials ........... 8
  Number of Threads ........ 1
  Head Tolerance ........... 0.001500 m
  
  
  *********************
  Control Actions Taken
  *********************
   01/01/2000: 00:00:00 Link V2 setting changed to   0.24 by Control EFDO2T2
   01/01/2000: 00:00:00 Link V3 setting changed to   0.65 by Control EFDO2T3
   01/01/2000: 00:00:00 Link V4 setting changed to   0.35 by Control EFDO2T4
   01/01/2000: 00:00:00 Link V6 setting changed to   0.43 by Control EFDO2T6
   01/01/2000: 00:05:00 Link V6 setting changed to   1.00 by Control EFDO2T6
   01/01/2000: 00:25:00 Link V6 setting changed to   0.43 by Control EFDO2T6
   01/01/2000: 00:25:00 Link V2 setting changed to   1.00 by Control EFDO2T2
   01/01/2000: 00:40:00 Link V2 setting changed to   0.24 by Control EFDO2T2
   01/01/2000: 00:40:00 Link V6 setting changed to   1.00 by Control EFDO2T6
   01/01/2000: 02:00:00 Link V6 setting changed to   0.43 by Control EFDO2T6
   01/01/2000: 02:30:00 Link V6 setting changed to   1.00 by Control EFDO2T6
   01/01/2000: 02:35:00 Link V2 setting changed to   1.00 by Control EFDO2T2
   01/01/2000: 02:35:00 Link V6 setting changed to   0.43 by Control EFDO2T6
   01/01/2000: 02:40:00 Link V2 setting changed to   0.24 by Control EFDO2T2
   01/01/2000: 02:40:00 Link V6 setting changed to   1.00 by Control EFDO2T6
   01/01/2000: 02:45:00 Link V2 setting changed to   1.00 by Control EFDO2T2
   01/01/2000: 02:45:00 Link V6 setting changed to   0.43 by Control EFDO2T6
   01/01/2000: 02:50:00 Link V2 setting changed to   0.24 by Control EFDO2T2
   01/01/2000: 02:50:00 Link V6 setting changed to   1.00 by Control EFDO2T6
   01/01/2000: 02:55:00 Link V2 setting changed to   1.00 by Control EFDO2T2
   01/01/2000: 02:55:00 Link V6 setting changed to   0.43 by Control EFDO2T6
   01/01/2000: 03:00:00 Link V2 setting changed to   0.24 by Control EFDO2T2
   01/01/2000: 03:00:00 Link V6 setting changed to   1.00 by Control EFDO2T6
   01/01/2000: 03:05:00 Link V4 setting changed to   1.00 by Control EFDO2T4
   01/01/2000: 03:05:00 Link V6 setting changed to   0.43 by Control EFDO2T6
   01/01/2000: 03:10:00 Link V2 setting changed to   1.00 by Control EFDO2T2
   01/01/2000: 03:10:00 Link V4 setting changed to   0.35 by Control EFDO2T4
   01/01/2000: 03:15:00 Link V2 setting changed to   0.24 by Control EFDO2T2
   01/01/2000: 03:15:00 Link V3 setting changed to   1.00 by Control EFDO2T3

  
  **************************        Volume         Depth
  Runoff Quantity Continuity     hectare-m            mm
  **************************     ---------       -------
  Total Precipitation ......         1.830        10.157
  Evaporation Loss .........         0.000         0.000
  Infiltration Loss ........         0.000         0.000
  Surface Runoff ...........         1.793         9.952
  Final Storage ............         0.044         0.245
  Continuity Error (%) .....        -0.387
  
  
  **************************        Volume        Volume
  Flow Routing Continuity        hectare-m      10^6 ltr
  **************************     ---------     ---------
  Dry Weather Inflow .......         0.027         0.268
  Wet Weather Inflow .......         1.792        17.922
  Groundwater Inflow .......         0.000         0.000
  RDII Inflow ..............         0.000         0.000
  External Inflow ..........         0.000         0.000
  External Outflow .........         0.328         3.276
  Flooding Loss ............         0.475         4.751
  Evaporation Loss .........         0.000         0.000
  Exfiltration Loss ........         0.000         0.000
  Initial Stored Volume ....         0.000         0.000
  Final Stored Volume ......         0.756         7.560
  Continuity Error (%) .....        14.309
  
  
  *************************
  Highest Continuity Errors
  *************************
  Node T2 (36.52%)
  Node T4 (29.67%)
  Node T5 (25.85%)
  Node T3 (24.84%)
  Node T6 (19.04%)
  
  
  ***************************
  Time-Step Critical Elements
  ***************************
  Link C15 (63.10%)
  
  
  ********************************
  Highest Flow Instability Indexes
  ********************************
  Link C13 (7)
  Link C14 (4)
  Link C23 (2)
  Link C5 (2)
  Link V2 (2)
  
  
  *************************
  Routing Time Step Summary
  *************************
  Minimum Time Step           :     0.57 sec
  Average Time Step           :    21.69 sec
  Maximum Time Step           :    30.00 sec
  Percent in Steady State     :     0.00
  Average Iterations per Step :     2.77
  Percent Not Converging      :     4.07
  Time Step Frequencies       :
     30.000 - 13.228 sec      :    71.79 %
     13.228 -  5.833 sec      :    26.85 %
      5.833 -  2.572 sec      :     0.75 %
      2.572 -  1.134 sec      :     0.00 %
      1.134 -  0.500 sec      :     0.60 %
  
  
  ***************************
  Subcatchment Runoff Summary
  ***************************
  
  ------------------------------------------------------------------------------------------------------------------------------
                            Total      Total      Total      Total     Imperv       Perv      Total       Total     Peak  Runoff
                           Precip      Runon       Evap      Infil     Runoff     Runoff     Runoff      Runoff   Runoff   Coeff
  Subcatchment                 mm         mm         mm         mm         mm         mm         mm    10^6 ltr      CMS
  ------------------------------------------------------------------------------------------------------------------------------
  SC01                      10.16       0.00       0.00       0.00      10.05       0.00      10.05        3.32     1.31   0.990
  SC010                     10.16       0.00       0.00       0.00       9.99       0.00       9.99        1.17     0.43   0.983
  SC02                      10.16       0.00       0.00       0.00      10.04       0.00      10.04        2.28     0.88   0.988
  SC03                      10.16       0.00       0.00       0.00      10.10       0.00      10.10        1.82     0.77   0.994
  SC04                      10.16       0.00       0.00       0.00       9.80       0.00       9.80        0.68     0.21   0.965
  SC05                      10.16       0.00       0.00       0.00      10.04       0.00      10.04        1.57     0.60   0.988
  SC06                      10.16       0.00       0.00       0.00       9.69       0.00       9.69        3.15     0.89   0.954
  SC07                      10.16       0.00       0.00       0.00       9.80       0.00       9.80        0.47     0.14   0.965
  SC08                      10.16       0.00       0.00       0.00       9.98       0.00       9.98        2.79     1.01   0.982
  SC09                      10.16       0.00       0.00       0.00       9.92       0.00       9.92        0.68     0.23   0.976
  
  
  ******************
  Node Depth Summary
  ******************
  
  ---------------------------------------------------------------------------------
                                 Average  Maximum  Maximum  Time of Max    Reported
                                   Depth    Depth      HGL   Occurrence   Max Depth
  Node                 Type       Meters   Meters   Meters  days hr:min      Meters
  ---------------------------------------------------------------------------------
  CSO10                JUNCTION     0.38     1.00    31.00     0  00:29        1.00
  CSO7                 JUNCTION     0.43     1.20    35.20     0  00:33        1.20
  CSO8                 JUNCTION     0.70     2.00    34.00     0  00:29        2.00
  CSO9                 JUNCTION     0.66     2.00    42.00     0  00:31        2.00
  J1                   JUNCTION     0.11     0.26    34.26     0  00:41        0.26
  J10                  JUNCTION     0.16     0.34    29.34     0  00:41        0.34
  J11                  JUNCTION     0.17     0.30    31.30     0  01:06        0.30
  J12                  JUNCTION     0.38     0.63    26.63     0  03:07        0.63
  J13                  JUNCTION     0.11     0.25    29.25     0  00:41        0.25
  J14                  JUNCTION     0.12     0.19    20.19     0  03:17        0.18
  J15                  JUNCTION     0.24     0.42    15.42     0  00:45        0.42
  J16                  JUNCTION     0.12     0.28    30.28     0  00:40        0.27
  J17                  JUNCTION     0.07     0.15    20.15     0  02:40        0.15
  J18                  JUNCTION     0.09     0.16    29.16     0  01:06        0.16
  J19                  JUNCTION     0.15     0.17     8.17     0  00:52        0.17
  J2                   JUNCTION     0.07     0.08    25.08     0  01:48        0.08
  J3                   JUNCTION     0.11     0.15    18.15     0  03:25        0.15
  J4                   JUNCTION     0.28     1.02    34.02     0  00:35        0.74
  J5                   JUNCTION     0.09     0.18    32.18     0  00:46        0.18
  J6                   JUNCTION     0.06     0.12    25.12     0  03:10        0.12
  J7                   JUNCTION     0.13     0.23    39.23     0  01:06        0.23
  J8                   JUNCTION     0.17     0.33    36.33     0  00:50        0.33
  J9                   JUNCTION     0.12     0.16    29.16     0  02:00        0.16
  Out_to_WWTP          OUTFALL      0.15     0.17     6.17     0  00:51        0.17
  T1                   STORAGE      4.04     5.00    15.00     0  00:51        5.00
  T2                   STORAGE      3.53     5.00    26.00     0  01:55        5.00
  T3                   STORAGE      3.08     4.64    26.64     0  03:10        4.63
  T4                   STORAGE      3.08     4.76    31.76     0  02:34        4.76
  T5                   STORAGE      3.83     5.00    32.00     0  01:03        5.00
  T6                   STORAGE      3.76     5.00    36.00     0  01:01        5.00
  
  
  *******************
  Node Inflow Summary
  *******************
  
  -------------------------------------------------------------------------------------------------
                                  Maximum  Maximum                  Lateral       Total        Flow
                                  Lateral    Total  Time of Max      Inflow      Inflow     Balance
                                   Inflow   Inflow   Occurrence      Volume      Volume       Error
  Node                 Type           CMS      CMS  days hr:min    10^6 ltr    10^6 ltr     Percent
  -------------------------------------------------------------------------------------------------
  CSO10                JUNCTION     0.428    0.428     0  00:45        1.18        1.18       0.003
  CSO7                 JUNCTION     0.144    0.144     0  00:45       0.487       0.487       0.084
  CSO8                 JUNCTION     1.008    1.008     0  00:45        2.79        2.79       0.006
  CSO9                 JUNCTION     0.235    0.235     0  00:45       0.698       0.698       0.053
  J1                   JUNCTION     0.604    0.604     0  00:40        1.61        1.61      -0.195
  J10                  JUNCTION     0.775    1.260     0  00:40        1.84        3.96      -0.047
  J11                  JUNCTION     0.000    0.487     0  01:06           0        2.13       0.327
  J12                  JUNCTION     0.000    1.304     0  00:44           0        5.41       5.805
  J13                  JUNCTION     0.882    0.882     0  00:40        2.32        2.32      -0.525
  J14                  JUNCTION     0.000    0.182     0  03:15           0        1.51       0.628
  J15                  JUNCTION     0.000    1.615     0  00:40           0        7.01       1.400
  J16                  JUNCTION     1.312    1.312     0  00:40        3.36        3.36      -0.116
  J17                  JUNCTION     0.000    0.140     0  02:35           0       0.541       1.112
  J18                  JUNCTION     0.000    0.202     0  01:05           0       0.892       0.006
  J19                  JUNCTION     0.000    0.271     0  00:51           0        3.29       0.386
  J2                   JUNCTION     0.000    0.039     0  01:03           0       0.468       1.091
  J3                   JUNCTION     0.000    0.248     0  03:18           0        2.28       2.142
  J4                   JUNCTION     0.000    0.084     0  00:33           0       0.384       0.500
  J5                   JUNCTION     0.208    0.281     0  00:45       0.686        1.07      -0.074
  J6                   JUNCTION     0.000    0.077     0  03:05           0        0.32       1.214
  J7                   JUNCTION     0.000    0.127     0  01:06           0       0.568       0.428
  J8                   JUNCTION     0.895    1.022     0  00:50        3.22        3.79      -0.031
  J9                   JUNCTION     0.000    0.175     0  01:01           0        1.46       1.351
  Out_to_WWTP          OUTFALL      0.000    0.271     0  00:52           0        3.28       0.000
  T1                   STORAGE      0.000    1.584     0  00:45           0        6.92      13.562
  T2                   STORAGE      0.000    0.881     0  00:41           0        2.33      57.520
  T3                   STORAGE      0.000    1.298     0  00:46           0        5.11      33.043
  T4                   STORAGE      0.000    0.280     0  00:46           0        1.07      42.194
  T5                   STORAGE      0.000    0.603     0  00:41           0        1.61      34.870
  T6                   STORAGE      0.000    1.021     0  00:50           0        3.79      23.510
  
  
  **********************
  Node Surcharge Summary
  **********************
  
  Surcharging occurs when water rises above the top of the highest conduit.
  ---------------------------------------------------------------------
                                               Max. Height   Min. Depth
                                   Hours       Above Crown    Below Rim
  Node                 Type      Surcharged         Meters       Meters
  ---------------------------------------------------------------------
  CSO10                JUNCTION        0.70          0.560        0.000
  CSO7                 JUNCTION        0.81          0.945        0.000
  CSO8                 JUNCTION        0.82          1.547        0.000
  CSO9                 JUNCTION        0.82          1.682        0.000
  J4                   JUNCTION        0.78          0.721        0.979
  
  
  *********************
  Node Flooding Summary
  *********************
  
  Flooding refers to all water that overflows a node, whether it ponds or not.
  --------------------------------------------------------------------------
                                                             Total   Maximum
                                 Maximum   Time of Max       Flood    Ponded
                        Hours       Rate    Occurrence      Volume     Depth
  Node                 Flooded       CMS   days hr:min    10^6 ltr    Meters
  --------------------------------------------------------------------------
  CSO10                   0.62     0.226      0  00:45       0.291     0.000
  CSO7                    0.66     0.072      0  00:45       0.103     0.000
  CSO8                    0.62     0.522      0  00:45       0.666     0.000
  CSO9                    0.58     0.107      0  00:45       0.130     0.000
  T1                      3.04     1.212      0  00:51       2.101     0.000
  T2                      0.54     0.058      0  01:55       0.055     0.000
  T5                      1.18     0.271      0  01:03       0.302     0.000
  T6                      1.48     0.700      0  01:01       1.099     0.000
  
  
  **********************
  Storage Volume Summary
  **********************
  
  --------------------------------------------------------------------------------------------------
                         Average     Avg  Evap Exfil       Maximum     Max    Time of Max    Maximum
                          Volume    Pcnt  Pcnt  Pcnt        Volume    Pcnt     Occurrence    Outflow
  Storage Unit           1000 m3    Full  Loss  Loss       1000 m3    Full    days hr:min        CMS
  --------------------------------------------------------------------------------------------------
  T1                       0.565      81     0     0         0.700     100       0  00:51      0.271
  T2                       0.706      71     0     0         1.000     100       0  01:55      0.140
  T3                       1.600      62     0     0         2.411      93       0  03:10      0.182
  T4                       0.308      62     0     0         0.476      95       0  02:34      0.077
  T5                       0.383      77     0     0         0.500     100       0  01:03      0.039
  T6                       0.451      75     0     0         0.600     100       0  01:01      0.175
  
  
  ***********************
  Outfall Loading Summary
  ***********************
  
  -----------------------------------------------------------
                         Flow       Avg       Max       Total
                         Freq      Flow      Flow      Volume
  Outfall Node           Pcnt       CMS       CMS    10^6 ltr
  -----------------------------------------------------------
  Out_to_WWTP           97.14     0.231     0.271       3.276
  -----------------------------------------------------------
  System                97.14     0.231     0.271       3.276
  
  
  ********************
  Link Flow Summary
  ********************
  
  -----------------------------------------------------------------------------
                                 Maximum  Time of Max   Maximum    Max/    Max/
                                  |Flow|   Occurrence   |Veloc|    Full    Full
  Link                 Type          CMS  days hr:min     m/sec    Flow   Depth
  -----------------------------------------------------------------------------
  C1                   CONDUIT     0.039     0  01:48      1.11    0.01    0.12
  C10                  CONDUIT     1.021     0  00:50      2.35    0.10    0.61
  C11                  CONDUIT     0.246     0  03:25      1.90    0.01    0.13
  C12                  CONDUIT     0.175     0  01:54      1.11    0.01    0.20
  C13                  CONDUIT     1.298     0  00:46      3.28    0.08    0.66
  C14                  CONDUIT     0.271     0  00:52      2.08    0.02    0.09
  C15                  CONDUIT     0.487     0  01:06      3.52    1.55    0.83
  C16                  CONDUIT     0.486     0  00:56      1.81    0.05    0.16
  C17                  CONDUIT     1.250     0  00:41      3.36    0.06    0.18
  C18                  CONDUIT     0.881     0  00:41      2.60    0.03    0.56
  C19                  CONDUIT     0.138     0  02:40      1.54    0.05    0.25
  C2                   CONDUIT     0.076     0  03:10      1.62    0.09    0.22
  C20                  CONDUIT     1.308     0  00:41      3.64    0.04    0.17
  C21                  CONDUIT     0.202     0  01:05      1.86    1.16    0.69
  C22                  CONDUIT     0.202     0  01:06      1.68    0.09    0.37
  C23                  CONDUIT     1.584     0  00:45      2.61    0.17    0.64
  C3                   CONDUIT     0.184     0  03:18      2.13    0.07    0.17
  C4                   CONDUIT     0.603     0  00:41      2.32    0.15    0.63
  C5                   CONDUIT     0.084     0  00:33      1.65    1.44    1.00
  C6                   CONDUIT     0.072     0  00:46      1.28    1.15    0.80
  C7                   CONDUIT     0.280     0  00:46      2.01    0.07    0.59
  C8                   CONDUIT     0.127     0  01:06      1.82    1.60    0.86
  C9                   CONDUIT     0.127     0  01:06      1.26    0.43    0.56
  V1                   ORIFICE     0.271     0  00:51                      1.00
  V2                   ORIFICE     0.140     0  02:35                      1.00
  V3                   ORIFICE     0.182     0  03:15                      1.00
  V4                   ORIFICE     0.077     0  03:05                      1.00
  V5                   ORIFICE     0.039     0  01:03                      1.00
  V6                   ORIFICE     0.175     0  01:01                      1.00
  
  
  ***************************
  Flow Classification Summary
  ***************************
  
  -------------------------------------------------------------------------------------
                      Adjusted    ---------- Fraction of Time in Flow Class ---------- 
                       /Actual         Up    Down  Sub   Sup   Up    Down  Norm  Inlet 
  Conduit               Length    Dry  Dry   Dry   Crit  Crit  Crit  Crit  Ltd   Ctrl  
  -------------------------------------------------------------------------------------
  C1                      1.00   0.00  0.00  0.00  0.17  0.82  0.00  0.00  0.85  0.00
  C10                     1.00   0.00  0.00  0.00  0.87  0.13  0.00  0.00  0.89  0.00
  C11                     1.00   0.00  0.00  0.00  0.48  0.51  0.00  0.00  1.00  0.00
  C12                     1.00   0.00  0.00  0.00  1.00  0.00  0.00  0.00  1.00  0.00
  C13                     1.00   0.00  0.00  0.00  0.83  0.17  0.00  0.00  0.26  0.00
  C14                     1.00   0.02  0.00  0.00  0.02  0.96  0.00  0.00  0.00  0.00
  C15                     1.00   0.03  0.00  0.00  0.00  0.96  0.00  0.00  0.00  0.00
  C16                     1.00   0.00  0.04  0.00  0.10  0.86  0.00  0.00  0.17  0.00
  C17                     1.00   0.00  0.00  0.00  0.45  0.55  0.00  0.00  0.89  0.00
  C18                     1.00   0.00  0.00  0.00  0.88  0.12  0.00  0.00  0.91  0.00
  C19                     1.00   0.00  0.00  0.00  0.94  0.06  0.00  0.00  1.00  0.00
  C2                      1.00   0.00  0.00  0.00  0.83  0.16  0.00  0.00  0.95  0.00
  C20                     1.00   0.00  0.00  0.00  0.35  0.65  0.00  0.00  0.94  0.00
  C21                     1.00   0.00  0.00  0.00  0.02  0.98  0.00  0.00  0.00  0.00
  C22                     1.00   0.00  0.00  0.00  0.74  0.25  0.00  0.00  1.00  0.00
  C23                     1.00   0.00  0.00  0.00  0.87  0.13  0.00  0.00  0.88  0.00
  C3                      1.00   0.00  0.01  0.00  0.08  0.90  0.00  0.00  0.11  0.00
  C4                      1.00   0.00  0.00  0.00  0.89  0.11  0.00  0.00  0.91  0.00
  C5                      1.00   0.00  0.00  0.00  0.88  0.12  0.00  0.00  0.68  0.00
  C6                      1.00   0.00  0.00  0.00  0.45  0.55  0.00  0.00  0.01  0.00
  C7                      1.00   0.00  0.00  0.00  0.86  0.14  0.00  0.00  0.88  0.00
  C8                      1.00   0.00  0.00  0.00  0.34  0.66  0.00  0.00  0.00  0.00
  C9                      1.00   0.00  0.00  0.00  1.00  0.00  0.00  0.00  1.00  0.00
  
  
  *************************
  Conduit Surcharge Summary
  *************************
  
  ----------------------------------------------------------------------------
                                                           Hours        Hours 
                         --------- Hours Full --------   Above Full   Capacity
  Conduit                Both Ends  Upstream  Dnstream   Normal Flow   Limited
  ----------------------------------------------------------------------------
  C10                         0.01      0.01      3.31      0.01         0.01
  C13                         0.01      0.01      3.08      0.01         0.01
  C15                         0.01      0.81      0.01      0.84         0.01
  C18                         0.01      0.01      3.23      0.01         0.01
  C21                         0.01      0.70      0.01      0.68         0.01
  C23                         0.01      0.01      3.37      0.01         0.01
  C4                          0.01      0.01      3.41      0.01         0.01
  C5                          0.77      0.81      0.87      0.82         0.75
  C6                          0.01      0.78      0.01      0.69         0.01
  C7                          0.01      0.01      3.26      0.01         0.01
  C8                          0.01      0.82      0.01      0.83         0.01
  

  Analysis begun on:  Tue Dec 21 09:11:26 2021
  Analysis ended on:  Tue Dec 21 09:11:26 2021
  Total elapsed time: < 1 sec