
  EPA STORM WATER MANAGEMENT MODEL - VERSION 5.1 (Build 5.1.015)
  --------------------------------------------------------------

  
  *********************************************************
  NOTE: The summary statistics displayed in this report are
  based on results found at every computational time step,  
  not just on results from each reporting time step.
  *********************************************************
  
  ****************
  Analysis Options
  ****************
  Flow Units ............... CMS
  Process Models:
    Rainfall/Runoff ........ YES
    RDII ................... NO
    Snowmelt ............... NO
    Groundwater ............ NO
    Flow Routing ........... YES
    Ponding Allowed ........ NO
    Water Quality .......... NO
  Infiltration Method ...... HORTON
  Flow Routing Method ...... DYNWAVE
  Surcharge Method ......... EXTRAN
  Starting Date ............ 01/01/2000 00:00:00
  Ending Date .............. 01/01/2000 04:00:00
  Antecedent Dry Days ...... 0.0
  Report Time Step ......... 00:05:00
  Wet Time Step ............ 00:05:00
  Dry Time Step ............ 00:05:00
  Routing Time Step ........ 30.00 sec
  Variable Time Step ....... YES
  Maximum Trials ........... 8
  Number of Threads ........ 1
  Head Tolerance ........... 0.001500 m
  
  
  *********************
  Control Actions Taken
  *********************
   01/01/2000: 00:00:00 Link V2 setting changed to   0.24 by Control EFDO2T2
   01/01/2000: 00:00:00 Link V3 setting changed to   0.65 by Control EFDO2T3
   01/01/2000: 00:00:00 Link V4 setting changed to   0.35 by Control EFDO2T4
   01/01/2000: 00:00:00 Link V6 setting changed to   0.43 by Control EFDO2T6
   01/01/2000: 00:05:00 Link V6 setting changed to   1.00 by Control EFDO2T6
   01/01/2000: 00:25:00 Link V6 setting changed to   0.43 by Control EFDO2T6
   01/01/2000: 00:25:00 Link V2 setting changed to   1.00 by Control EFDO2T2
   01/01/2000: 00:45:00 Link V2 setting changed to   0.24 by Control EFDO2T2
   01/01/2000: 00:45:00 Link V6 setting changed to   1.00 by Control EFDO2T6
   01/01/2000: 02:50:00 Link V3 setting changed to   1.00 by Control EFDO2T3
   01/01/2000: 02:50:00 Link V6 setting changed to   0.43 by Control EFDO2T6

  
  **************************        Volume         Depth
  Runoff Quantity Continuity     hectare-m            mm
  **************************     ---------       -------
  Total Precipitation ......         1.641         9.105
  Evaporation Loss .........         0.000         0.000
  Infiltration Loss ........         0.000         0.000
  Surface Runoff ...........         1.604         8.899
  Final Storage ............         0.043         0.241
  Continuity Error (%) .....        -0.384
  
  
  **************************        Volume        Volume
  Flow Routing Continuity        hectare-m      10^6 ltr
  **************************     ---------     ---------
  Dry Weather Inflow .......         0.027         0.268
  Wet Weather Inflow .......         1.603        16.027
  Groundwater Inflow .......         0.000         0.000
  RDII Inflow ..............         0.000         0.000
  External Inflow ..........         0.000         0.000
  External Outflow .........         0.321         3.210
  Flooding Loss ............         0.328         3.281
  Evaporation Loss .........         0.000         0.000
  Exfiltration Loss ........         0.000         0.000
  Initial Stored Volume ....         0.000         0.000
  Final Stored Volume ......         0.730         7.300
  Continuity Error (%) .....        15.363
  
  
  *************************
  Highest Continuity Errors
  *************************
  Node T2 (39.75%)
  Node T4 (30.03%)
  Node T5 (28.87%)
  Node T3 (24.39%)
  Node T6 (20.31%)
  
  
  ***************************
  Time-Step Critical Elements
  ***************************
  Link C15 (61.22%)
  
  
  ********************************
  Highest Flow Instability Indexes
  ********************************
  Link C13 (6)
  Link C14 (4)
  Link C5 (3)
  Link C6 (1)
  Link V3 (1)
  
  
  *************************
  Routing Time Step Summary
  *************************
  Minimum Time Step           :     0.63 sec
  Average Time Step           :    21.98 sec
  Maximum Time Step           :    30.00 sec
  Percent in Steady State     :     0.00
  Average Iterations per Step :     2.80
  Percent Not Converging      :     4.58
  Time Step Frequencies       :
     30.000 - 13.228 sec      :    74.77 %
     13.228 -  5.833 sec      :    24.16 %
      5.833 -  2.572 sec      :     0.92 %
      2.572 -  1.134 sec      :     0.00 %
      1.134 -  0.500 sec      :     0.15 %
  
  
  ***************************
  Subcatchment Runoff Summary
  ***************************
  
  ------------------------------------------------------------------------------------------------------------------------------
                            Total      Total      Total      Total     Imperv       Perv      Total       Total     Peak  Runoff
                           Precip      Runon       Evap      Infil     Runoff     Runoff     Runoff      Runoff   Runoff   Coeff
  Subcatchment                 mm         mm         mm         mm         mm         mm         mm    10^6 ltr      CMS
  ------------------------------------------------------------------------------------------------------------------------------
  SC01                       9.11       0.00       0.00       0.00       9.00       0.00       9.00        2.97     1.20   0.988
  SC010                      9.11       0.00       0.00       0.00       8.93       0.00       8.93        1.05     0.39   0.981
  SC02                       9.11       0.00       0.00       0.00       8.99       0.00       8.99        2.04     0.81   0.987
  SC03                       9.11       0.00       0.00       0.00       9.05       0.00       9.05        1.63     0.70   0.993
  SC04                       9.11       0.00       0.00       0.00       8.75       0.00       8.75        0.60     0.18   0.961
  SC05                       9.11       0.00       0.00       0.00       8.98       0.00       8.98        1.40     0.55   0.987
  SC06                       9.11       0.00       0.00       0.00       8.64       0.00       8.64        2.81     0.77   0.949
  SC07                       9.11       0.00       0.00       0.00       8.75       0.00       8.75        0.42     0.12   0.961
  SC08                       9.11       0.00       0.00       0.00       8.92       0.00       8.92        2.50     0.91   0.980
  SC09                       9.11       0.00       0.00       0.00       8.87       0.00       8.87        0.61     0.20   0.974
  
  
  ******************
  Node Depth Summary
  ******************
  
  ---------------------------------------------------------------------------------
                                 Average  Maximum  Maximum  Time of Max    Reported
                                   Depth    Depth      HGL   Occurrence   Max Depth
  Node                 Type       Meters   Meters   Meters  days hr:min      Meters
  ---------------------------------------------------------------------------------
  CSO10                JUNCTION     0.36     1.00    31.00     0  00:34        1.00
  CSO7                 JUNCTION     0.40     1.20    35.20     0  00:38        1.20
  CSO8                 JUNCTION     0.66     2.00    34.00     0  00:34        2.00
  CSO9                 JUNCTION     0.61     2.00    42.00     0  00:36        2.00
  J1                   JUNCTION     0.11     0.25    34.25     0  00:45        0.25
  J10                  JUNCTION     0.16     0.33    29.33     0  00:45        0.33
  J11                  JUNCTION     0.16     0.30    31.30     0  01:07        0.30
  J12                  JUNCTION     0.33     0.58    26.58     0  02:53        0.57
  J13                  JUNCTION     0.10     0.24    29.24     0  00:45        0.24
  J14                  JUNCTION     0.12     0.19    20.19     0  02:52        0.18
  J15                  JUNCTION     0.23     0.41    15.41     0  00:47        0.40
  J16                  JUNCTION     0.11     0.26    30.26     0  00:45        0.26
  J17                  JUNCTION     0.07     0.10    20.10     0  00:45        0.10
  J18                  JUNCTION     0.09     0.16    29.16     0  01:07        0.16
  J19                  JUNCTION     0.15     0.17     8.17     0  00:58        0.17
  J2                   JUNCTION     0.07     0.08    25.08     0  02:00        0.08
  J3                   JUNCTION     0.11     0.15    18.15     0  03:00        0.15
  J4                   JUNCTION     0.27     1.02    34.02     0  00:40        0.73
  J5                   JUNCTION     0.09     0.17    32.17     0  00:50        0.17
  J6                   JUNCTION     0.06     0.07    25.07     0  02:36        0.07
  J7                   JUNCTION     0.12     0.23    39.23     0  01:06        0.23
  J8                   JUNCTION     0.16     0.31    36.31     0  00:50        0.31
  J9                   JUNCTION     0.12     0.16    29.16     0  02:08        0.16
  Out_to_WWTP          OUTFALL      0.14     0.17     6.17     0  02:49        0.17
  T1                   STORAGE      3.94     5.00    15.00     0  00:57        5.00
  T2                   STORAGE      3.17     4.55    25.55     0  02:27        4.55
  T3                   STORAGE      2.90     4.58    26.58     0  02:49        4.58
  T4                   STORAGE      2.75     4.32    31.32     0  02:35        4.32
  T5                   STORAGE      3.66     5.00    32.00     0  01:17        5.00
  T6                   STORAGE      3.56     5.00    36.00     0  01:09        5.00
  
  
  *******************
  Node Inflow Summary
  *******************
  
  -------------------------------------------------------------------------------------------------
                                  Maximum  Maximum                  Lateral       Total        Flow
                                  Lateral    Total  Time of Max      Inflow      Inflow     Balance
                                   Inflow   Inflow   Occurrence      Volume      Volume       Error
  Node                 Type           CMS      CMS  days hr:min    10^6 ltr    10^6 ltr     Percent
  -------------------------------------------------------------------------------------------------
  CSO10                JUNCTION     0.386    0.386     0  00:45        1.06        1.06       0.015
  CSO7                 JUNCTION     0.126    0.126     0  00:50       0.437       0.437       0.093
  CSO8                 JUNCTION     0.905    0.905     0  00:45         2.5         2.5       0.004
  CSO9                 JUNCTION     0.206    0.206     0  00:45       0.626       0.626       0.043
  J1                   JUNCTION     0.557    0.557     0  00:45        1.44        1.44      -0.212
  J10                  JUNCTION     0.701    1.186     0  00:45        1.65        3.68      -0.032
  J11                  JUNCTION     0.000    0.486     0  01:06           0        2.04       0.326
  J12                  JUNCTION     0.000    1.222     0  00:46           0        5.25       3.736
  J13                  JUNCTION     0.813    0.813     0  00:45        2.08        2.08      -0.574
  J14                  JUNCTION     0.000    0.181     0  02:57           0        1.55       0.604
  J15                  JUNCTION     0.000    1.520     0  00:45           0        6.49       1.493
  J16                  JUNCTION     1.204    1.204     0  00:45        3.01        3.01      -0.122
  J17                  JUNCTION     0.000    0.070     0  00:45           0       0.399       1.503
  J18                  JUNCTION     0.000    0.202     0  01:07           0       0.855       0.011
  J19                  JUNCTION     0.000    0.271     0  00:57           0        3.22       0.394
  J2                   JUNCTION     0.000    0.039     0  01:18           0       0.456       1.125
  J3                   JUNCTION     0.000    0.247     0  02:53           0        2.28       2.102
  J4                   JUNCTION     0.000    0.084     0  00:38           0       0.367       0.498
  J5                   JUNCTION     0.182    0.254     0  00:50       0.613       0.978      -0.075
  J6                   JUNCTION     0.000    0.026     0  02:35           0       0.287       1.343
  J7                   JUNCTION     0.000    0.127     0  01:06           0       0.541       0.434
  J8                   JUNCTION     0.779    0.906     0  00:50        2.88        3.42      -0.026
  J9                   JUNCTION     0.000    0.175     0  01:09           0        1.57       1.195
  Out_to_WWTP          OUTFALL      0.000    0.271     0  00:58           0        3.21       0.000
  T1                   STORAGE      0.000    1.469     0  00:47           0        6.39      14.830
  T2                   STORAGE      0.000    0.809     0  00:45           0        2.09      65.989
  T3                   STORAGE      0.000    1.214     0  00:48           0        5.06      32.265
  T4                   STORAGE      0.000    0.253     0  00:50           0       0.979      42.920
  T5                   STORAGE      0.000    0.555     0  00:45           0        1.44      40.588
  T6                   STORAGE      0.000    0.901     0  00:51           0        3.42      25.484
  
  
  **********************
  Node Surcharge Summary
  **********************
  
  Surcharging occurs when water rises above the top of the highest conduit.
  ---------------------------------------------------------------------
                                               Max. Height   Min. Depth
                                   Hours       Above Crown    Below Rim
  Node                 Type      Surcharged         Meters       Meters
  ---------------------------------------------------------------------
  CSO10                JUNCTION        0.64          0.560        0.000
  CSO7                 JUNCTION        0.76          0.945        0.000
  CSO8                 JUNCTION        0.77          1.547        0.000
  CSO9                 JUNCTION        0.78          1.682        0.000
  J4                   JUNCTION        0.72          0.722        0.978
  
  
  *********************
  Node Flooding Summary
  *********************
  
  Flooding refers to all water that overflows a node, whether it ponds or not.
  --------------------------------------------------------------------------
                                                             Total   Maximum
                                 Maximum   Time of Max       Flood    Ponded
                        Hours       Rate    Occurrence      Volume     Depth
  Node                 Flooded       CMS   days hr:min    10^6 ltr    Meters
  --------------------------------------------------------------------------
  CSO10                   0.55     0.184      0  00:45       0.204     0.000
  CSO7                    0.60     0.054      0  00:50       0.070     0.000
  CSO8                    0.54     0.419      0  00:45       0.462     0.000
  CSO9                    0.50     0.078      0  00:45       0.084     0.000
  T1                      2.54     0.979      0  00:57       1.643     0.000
  T5                      0.89     0.131      0  01:17       0.151     0.000
  T6                      0.98     0.518      0  01:09       0.664     0.000
  
  
  **********************
  Storage Volume Summary
  **********************
  
  --------------------------------------------------------------------------------------------------
                         Average     Avg  Evap Exfil       Maximum     Max    Time of Max    Maximum
                          Volume    Pcnt  Pcnt  Pcnt        Volume    Pcnt     Occurrence    Outflow
  Storage Unit           1000 m3    Full  Loss  Loss       1000 m3    Full    days hr:min        CMS
  --------------------------------------------------------------------------------------------------
  T1                       0.551      79     0     0         0.700     100       0  00:57      0.271
  T2                       0.633      63     0     0         0.910      91       0  02:27      0.070
  T3                       1.506      58     0     0         2.381      92       0  02:49      0.214
  T4                       0.275      55     0     0         0.432      86       0  02:35      0.026
  T5                       0.366      73     0     0         0.500     100       0  01:17      0.039
  T6                       0.428      71     0     0         0.600     100       0  01:09      0.175
  
  
  ***********************
  Outfall Loading Summary
  ***********************
  
  -----------------------------------------------------------
                         Flow       Avg       Max       Total
                         Freq      Flow      Flow      Volume
  Outfall Node           Pcnt       CMS       CMS    10^6 ltr
  -----------------------------------------------------------
  Out_to_WWTP           96.95     0.227     0.271       3.210
  -----------------------------------------------------------
  System                96.95     0.227     0.271       3.210
  
  
  ********************
  Link Flow Summary
  ********************
  
  -----------------------------------------------------------------------------
                                 Maximum  Time of Max   Maximum    Max/    Max/
                                  |Flow|   Occurrence   |Veloc|    Full    Full
  Link                 Type          CMS  days hr:min     m/sec    Flow   Depth
  -----------------------------------------------------------------------------
  C1                   CONDUIT     0.039     0  02:01      1.07    0.01    0.12
  C10                  CONDUIT     0.901     0  00:51      2.35    0.09    0.60
  C11                  CONDUIT     0.245     0  03:01      1.92    0.01    0.12
  C12                  CONDUIT     0.175     0  02:00      1.18    0.01    0.18
  C13                  CONDUIT     1.214     0  00:48      3.12    0.07    0.65
  C14                  CONDUIT     0.271     0  00:58      2.08    0.02    0.09
  C15                  CONDUIT     0.486     0  01:06      3.49    1.55    0.83
  C16                  CONDUIT     0.486     0  00:56      1.80    0.05    0.16
  C17                  CONDUIT     1.185     0  00:45      3.34    0.06    0.17
  C18                  CONDUIT     0.809     0  00:45      2.50    0.03    0.56
  C19                  CONDUIT     0.065     0  00:45      0.57    0.02    0.25
  C2                   CONDUIT     0.026     0  02:37      0.81    0.03    0.19
  C20                  CONDUIT     1.199     0  00:45      3.59    0.04    0.17
  C21                  CONDUIT     0.202     0  01:07      1.85    1.16    0.69
  C22                  CONDUIT     0.202     0  01:07      1.66    0.09    0.36
  C23                  CONDUIT     1.469     0  00:47      2.50    0.16    0.64
  C3                   CONDUIT     0.183     0  02:53      2.13    0.07    0.17
  C4                   CONDUIT     0.555     0  00:45      2.17    0.13    0.62
  C5                   CONDUIT     0.084     0  00:38      1.64    1.43    1.00
  C6                   CONDUIT     0.072     0  00:50      1.27    1.14    0.78
  C7                   CONDUIT     0.253     0  00:50      1.89    0.06    0.58
  C8                   CONDUIT     0.127     0  01:06      1.81    1.60    0.86
  C9                   CONDUIT     0.127     0  01:06      1.27    0.43    0.54
  V1                   ORIFICE     0.271     0  00:57                      1.00
  V2                   ORIFICE     0.070     0  00:45                      1.00
  V3                   ORIFICE     0.181     0  02:57                      1.00
  V4                   ORIFICE     0.026     0  02:35                      0.35
  V5                   ORIFICE     0.039     0  01:18                      1.00
  V6                   ORIFICE     0.175     0  01:09                      1.00
  
  
  ***************************
  Flow Classification Summary
  ***************************
  
  -------------------------------------------------------------------------------------
                      Adjusted    ---------- Fraction of Time in Flow Class ---------- 
                       /Actual         Up    Down  Sub   Sup   Up    Down  Norm  Inlet 
  Conduit               Length    Dry  Dry   Dry   Crit  Crit  Crit  Crit  Ltd   Ctrl  
  -------------------------------------------------------------------------------------
  C1                      1.00   0.00  0.00  0.00  0.22  0.78  0.00  0.00  0.84  0.00
  C10                     1.00   0.00  0.00  0.00  0.86  0.14  0.00  0.00  0.88  0.00
  C11                     1.00   0.00  0.00  0.00  0.51  0.49  0.00  0.00  1.00  0.00
  C12                     1.00   0.00  0.00  0.00  0.96  0.04  0.00  0.00  1.00  0.00
  C13                     1.00   0.00  0.00  0.00  0.81  0.18  0.00  0.00  0.30  0.00
  C14                     1.00   0.02  0.00  0.00  0.02  0.95  0.00  0.00  0.06  0.00
  C15                     1.00   0.05  0.00  0.00  0.00  0.95  0.00  0.00  0.01  0.00
  C16                     1.00   0.00  0.05  0.00  0.10  0.84  0.00  0.00  0.14  0.00
  C17                     1.00   0.00  0.00  0.00  0.40  0.60  0.00  0.00  0.89  0.00
  C18                     1.00   0.00  0.00  0.00  0.86  0.14  0.00  0.00  0.90  0.00
  C19                     1.00   0.00  0.00  0.00  1.00  0.00  0.00  0.00  1.00  0.00
  C2                      1.00   0.00  0.00  0.00  0.85  0.15  0.00  0.00  0.96  0.00
  C20                     1.00   0.00  0.00  0.00  0.36  0.64  0.00  0.00  0.94  0.00
  C21                     1.00   0.00  0.00  0.00  0.02  0.98  0.00  0.00  0.00  0.00
  C22                     1.00   0.00  0.00  0.00  0.70  0.30  0.00  0.00  1.00  0.00
  C23                     1.00   0.00  0.00  0.00  0.86  0.14  0.00  0.00  0.86  0.00
  C3                      1.00   0.00  0.01  0.00  0.09  0.89  0.00  0.00  0.11  0.00
  C4                      1.00   0.00  0.00  0.00  0.88  0.12  0.00  0.00  0.90  0.00
  C5                      1.00   0.00  0.00  0.00  0.87  0.13  0.00  0.00  0.69  0.00
  C6                      1.00   0.00  0.00  0.00  0.45  0.55  0.00  0.00  0.01  0.00
  C7                      1.00   0.00  0.00  0.00  0.85  0.15  0.00  0.00  0.87  0.00
  C8                      1.00   0.00  0.00  0.00  0.33  0.67  0.00  0.00  0.00  0.00
  C9                      1.00   0.00  0.00  0.00  1.00  0.00  0.00  0.00  1.00  0.00
  
  
  *************************
  Conduit Surcharge Summary
  *************************
  
  ----------------------------------------------------------------------------
                                                           Hours        Hours 
                         --------- Hours Full --------   Above Full   Capacity
  Conduit                Both Ends  Upstream  Dnstream   Normal Flow   Limited
  ----------------------------------------------------------------------------
  C10                         0.01      0.01      3.24      0.01         0.01
  C13                         0.01      0.01      2.99      0.01         0.01
  C15                         0.01      0.77      0.01      0.80         0.01
  C18                         0.01      0.01      3.14      0.01         0.01
  C21                         0.01      0.64      0.01      0.62         0.01
  C23                         0.01      0.01      3.30      0.01         0.01
  C4                          0.01      0.01      3.34      0.01         0.01
  C5                          0.72      0.76      0.83      0.76         0.69
  C6                          0.01      0.72      0.01      0.63         0.01
  C7                          0.01      0.01      3.19      0.01         0.01
  C8                          0.01      0.78      0.01      0.79         0.01
  

  Analysis begun on:  Tue Dec 21 09:11:28 2021
  Analysis ended on:  Tue Dec 21 09:11:28 2021
  Total elapsed time: < 1 sec