
  EPA STORM WATER MANAGEMENT MODEL - VERSION 5.1 (Build 5.3.0.dev0)
  --------------------------------------------------------------

  
  *********************************************************
  NOTE: The summary statistics displayed in this report are
  based on results found at every computational time step,  
  not just on results from each reporting time step.
  *********************************************************
  
  ****************
  Analysis Options
  ****************
  Flow Units ............... CMS
  Process Models:
    Rainfall/Runoff ........ YES
    RDII ................... NO
    Snowmelt ............... NO
    Groundwater ............ NO
    Flow Routing ........... YES
    Ponding Allowed ........ NO
    Water Quality .......... NO
  Infiltration Method ...... HORTON
  Flow Routing Method ...... DYNWAVE
  Surcharge Method ......... EXTRAN
  Starting Date ............ 01/01/2000 00:00:00
  Ending Date .............. 01/01/2000 04:00:00
  Antecedent Dry Days ...... 0.0
  Report Time Step ......... 00:05:00
  Wet Time Step ............ 00:05:00
  Dry Time Step ............ 00:05:00
  Routing Time Step ........ 30.00 sec
  Variable Time Step ....... YES
  Maximum Trials ........... 8
  Number of Threads ........ 1
  Head Tolerance ........... 0.001500 m
  
  
  *********************
  Control Actions Taken
  *********************
   01/01/2000: 00:00:01 Link V2 setting changed to   0.50 by Control ToolkitAPI
   01/01/2000: 00:00:01 Link V3 setting changed to   0.25 by Control ToolkitAPI
   01/01/2000: 00:00:01 Link V4 setting changed to   0.00 by Control ToolkitAPI
   01/01/2000: 00:00:01 Link V6 setting changed to   0.00 by Control ToolkitAPI
   01/01/2000: 00:05:00 Link V2 setting changed to   0.50 by Control ToolkitAPI
   01/01/2000: 00:05:00 Link V3 setting changed to   0.25 by Control ToolkitAPI
   01/01/2000: 00:05:00 Link V4 setting changed to   0.00 by Control ToolkitAPI
   01/01/2000: 00:05:00 Link V6 setting changed to   0.75 by Control ToolkitAPI
   01/01/2000: 00:10:00 Link V2 setting changed to   0.00 by Control ToolkitAPI
   01/01/2000: 00:10:00 Link V3 setting changed to   0.25 by Control ToolkitAPI
   01/01/2000: 00:10:00 Link V4 setting changed to   0.50 by Control ToolkitAPI
   01/01/2000: 00:10:00 Link V6 setting changed to   0.00 by Control ToolkitAPI
   01/01/2000: 00:15:00 Link V2 setting changed to   0.00 by Control ToolkitAPI
   01/01/2000: 00:15:00 Link V3 setting changed to   0.25 by Control ToolkitAPI
   01/01/2000: 00:15:00 Link V4 setting changed to   0.50 by Control ToolkitAPI
   01/01/2000: 00:15:00 Link V6 setting changed to   0.25 by Control ToolkitAPI
   01/01/2000: 00:20:00 Link V2 setting changed to   0.00 by Control ToolkitAPI
   01/01/2000: 00:20:00 Link V3 setting changed to   0.25 by Control ToolkitAPI
   01/01/2000: 00:20:00 Link V4 setting changed to   0.50 by Control ToolkitAPI
   01/01/2000: 00:20:00 Link V6 setting changed to   0.75 by Control ToolkitAPI
   01/01/2000: 00:25:00 Link V2 setting changed to   0.25 by Control ToolkitAPI
   01/01/2000: 00:25:00 Link V3 setting changed to   0.25 by Control ToolkitAPI
   01/01/2000: 00:25:00 Link V4 setting changed to   0.75 by Control ToolkitAPI
   01/01/2000: 00:25:00 Link V6 setting changed to   0.00 by Control ToolkitAPI
   01/01/2000: 00:30:00 Link V2 setting changed to   0.25 by Control ToolkitAPI
   01/01/2000: 00:30:00 Link V3 setting changed to   0.25 by Control ToolkitAPI
   01/01/2000: 00:30:00 Link V4 setting changed to   0.75 by Control ToolkitAPI
   01/01/2000: 00:30:00 Link V6 setting changed to   0.75 by Control ToolkitAPI
   01/01/2000: 00:35:00 Link V2 setting changed to   0.25 by Control ToolkitAPI
   01/01/2000: 00:35:00 Link V3 setting changed to   0.25 by Control ToolkitAPI
   01/01/2000: 00:35:00 Link V4 setting changed to   0.75 by Control ToolkitAPI
   01/01/2000: 00:35:00 Link V6 setting changed to   0.75 by Control ToolkitAPI
   01/01/2000: 00:40:00 Link V2 setting changed to   1.00 by Control ToolkitAPI
   01/01/2000: 00:40:00 Link V3 setting changed to   0.25 by Control ToolkitAPI
   01/01/2000: 00:40:00 Link V4 setting changed to   0.75 by Control ToolkitAPI
   01/01/2000: 00:40:00 Link V6 setting changed to   0.25 by Control ToolkitAPI
   01/01/2000: 00:45:00 Link V2 setting changed to   1.00 by Control ToolkitAPI
   01/01/2000: 00:45:00 Link V3 setting changed to   0.25 by Control ToolkitAPI
   01/01/2000: 00:45:00 Link V4 setting changed to   0.75 by Control ToolkitAPI
   01/01/2000: 00:45:00 Link V6 setting changed to   0.75 by Control ToolkitAPI
   01/01/2000: 00:50:00 Link V2 setting changed to   1.00 by Control ToolkitAPI
   01/01/2000: 00:50:00 Link V3 setting changed to   0.25 by Control ToolkitAPI
   01/01/2000: 00:50:00 Link V4 setting changed to   0.75 by Control ToolkitAPI
   01/01/2000: 00:50:00 Link V6 setting changed to   0.75 by Control ToolkitAPI
   01/01/2000: 00:55:00 Link V2 setting changed to   0.25 by Control ToolkitAPI
   01/01/2000: 00:55:00 Link V3 setting changed to   0.25 by Control ToolkitAPI
   01/01/2000: 00:55:00 Link V4 setting changed to   0.75 by Control ToolkitAPI
   01/01/2000: 00:55:00 Link V6 setting changed to   0.25 by Control ToolkitAPI
   01/01/2000: 01:00:00 Link V2 setting changed to   1.00 by Control ToolkitAPI
   01/01/2000: 01:00:00 Link V3 setting changed to   0.00 by Control ToolkitAPI
   01/01/2000: 01:00:00 Link V4 setting changed to   0.50 by Control ToolkitAPI
   01/01/2000: 01:00:00 Link V6 setting changed to   0.25 by Control ToolkitAPI
   01/01/2000: 01:05:00 Link V2 setting changed to   1.00 by Control ToolkitAPI
   01/01/2000: 01:05:00 Link V3 setting changed to   1.00 by Control ToolkitAPI
   01/01/2000: 01:05:00 Link V4 setting changed to   0.25 by Control ToolkitAPI
   01/01/2000: 01:05:00 Link V6 setting changed to   0.75 by Control ToolkitAPI
   01/01/2000: 01:10:00 Link V2 setting changed to   0.00 by Control ToolkitAPI
   01/01/2000: 01:10:00 Link V3 setting changed to   0.00 by Control ToolkitAPI
   01/01/2000: 01:10:00 Link V4 setting changed to   0.50 by Control ToolkitAPI
   01/01/2000: 01:10:00 Link V6 setting changed to   0.75 by Control ToolkitAPI
   01/01/2000: 01:15:00 Link V2 setting changed to   0.00 by Control ToolkitAPI
   01/01/2000: 01:15:00 Link V3 setting changed to   1.00 by Control ToolkitAPI
   01/01/2000: 01:15:00 Link V4 setting changed to   0.50 by Control ToolkitAPI
   01/01/2000: 01:15:00 Link V6 setting changed to   0.75 by Control ToolkitAPI
   01/01/2000: 01:20:00 Link V2 setting changed to   0.00 by Control ToolkitAPI
   01/01/2000: 01:20:00 Link V3 setting changed to   1.00 by Control ToolkitAPI
   01/01/2000: 01:20:00 Link V4 setting changed to   0.50 by Control ToolkitAPI
   01/01/2000: 01:20:00 Link V6 setting changed to   0.75 by Control ToolkitAPI
   01/01/2000: 01:25:00 Link V2 setting changed to   0.00 by Control ToolkitAPI
   01/01/2000: 01:25:00 Link V3 setting changed to   0.00 by Control ToolkitAPI
   01/01/2000: 01:25:00 Link V4 setting changed to   0.50 by Control ToolkitAPI
   01/01/2000: 01:25:00 Link V6 setting changed to   0.75 by Control ToolkitAPI
   01/01/2000: 01:30:00 Link V2 setting changed to   0.00 by Control ToolkitAPI
   01/01/2000: 01:30:00 Link V3 setting changed to   0.00 by Control ToolkitAPI
   01/01/2000: 01:30:00 Link V4 setting changed to   0.50 by Control ToolkitAPI
   01/01/2000: 01:30:00 Link V6 setting changed to   0.75 by Control ToolkitAPI
   01/01/2000: 01:35:00 Link V2 setting changed to   0.00 by Control ToolkitAPI
   01/01/2000: 01:35:00 Link V3 setting changed to   0.00 by Control ToolkitAPI
   01/01/2000: 01:35:00 Link V4 setting changed to   0.50 by Control ToolkitAPI
   01/01/2000: 01:35:00 Link V6 setting changed to   0.50 by Control ToolkitAPI
   01/01/2000: 01:40:00 Link V2 setting changed to   0.00 by Control ToolkitAPI
   01/01/2000: 01:40:00 Link V3 setting changed to   0.00 by Control ToolkitAPI
   01/01/2000: 01:40:00 Link V4 setting changed to   0.00 by Control ToolkitAPI
   01/01/2000: 01:40:00 Link V6 setting changed to   0.50 by Control ToolkitAPI
   01/01/2000: 01:45:00 Link V2 setting changed to   0.00 by Control ToolkitAPI
   01/01/2000: 01:45:00 Link V3 setting changed to   0.00 by Control ToolkitAPI
   01/01/2000: 01:45:00 Link V4 setting changed to   0.00 by Control ToolkitAPI
   01/01/2000: 01:45:00 Link V6 setting changed to   0.50 by Control ToolkitAPI
   01/01/2000: 01:50:00 Link V2 setting changed to   0.00 by Control ToolkitAPI
   01/01/2000: 01:50:00 Link V3 setting changed to   0.00 by Control ToolkitAPI
   01/01/2000: 01:50:00 Link V4 setting changed to   0.00 by Control ToolkitAPI
   01/01/2000: 01:50:00 Link V6 setting changed to   0.50 by Control ToolkitAPI
   01/01/2000: 01:55:00 Link V2 setting changed to   0.00 by Control ToolkitAPI
   01/01/2000: 01:55:00 Link V3 setting changed to   0.00 by Control ToolkitAPI
   01/01/2000: 01:55:00 Link V4 setting changed to   0.50 by Control ToolkitAPI
   01/01/2000: 01:55:00 Link V6 setting changed to   0.50 by Control ToolkitAPI
   01/01/2000: 02:00:00 Link V2 setting changed to   0.00 by Control ToolkitAPI
   01/01/2000: 02:00:00 Link V3 setting changed to   0.00 by Control ToolkitAPI
   01/01/2000: 02:00:00 Link V4 setting changed to   0.50 by Control ToolkitAPI
   01/01/2000: 02:00:00 Link V6 setting changed to   0.75 by Control ToolkitAPI
   01/01/2000: 02:05:00 Link V2 setting changed to   0.00 by Control ToolkitAPI
   01/01/2000: 02:05:00 Link V3 setting changed to   0.00 by Control ToolkitAPI
   01/01/2000: 02:05:00 Link V4 setting changed to   0.75 by Control ToolkitAPI
   01/01/2000: 02:05:00 Link V6 setting changed to   0.75 by Control ToolkitAPI
   01/01/2000: 02:10:00 Link V2 setting changed to   0.50 by Control ToolkitAPI
   01/01/2000: 02:10:00 Link V3 setting changed to   1.00 by Control ToolkitAPI
   01/01/2000: 02:10:00 Link V4 setting changed to   1.00 by Control ToolkitAPI
   01/01/2000: 02:10:00 Link V6 setting changed to   1.00 by Control ToolkitAPI
   01/01/2000: 02:15:00 Link V2 setting changed to   0.50 by Control ToolkitAPI
   01/01/2000: 02:15:00 Link V3 setting changed to   0.75 by Control ToolkitAPI
   01/01/2000: 02:15:00 Link V4 setting changed to   1.00 by Control ToolkitAPI
   01/01/2000: 02:15:00 Link V6 setting changed to   1.00 by Control ToolkitAPI
   01/01/2000: 02:20:00 Link V2 setting changed to   0.50 by Control ToolkitAPI
   01/01/2000: 02:20:00 Link V3 setting changed to   1.00 by Control ToolkitAPI
   01/01/2000: 02:20:00 Link V4 setting changed to   1.00 by Control ToolkitAPI
   01/01/2000: 02:20:00 Link V6 setting changed to   0.75 by Control ToolkitAPI
   01/01/2000: 02:25:00 Link V2 setting changed to   0.50 by Control ToolkitAPI
   01/01/2000: 02:25:00 Link V3 setting changed to   0.75 by Control ToolkitAPI
   01/01/2000: 02:25:00 Link V4 setting changed to   0.75 by Control ToolkitAPI
   01/01/2000: 02:25:00 Link V6 setting changed to   0.75 by Control ToolkitAPI
   01/01/2000: 02:30:00 Link V2 setting changed to   0.00 by Control ToolkitAPI
   01/01/2000: 02:30:00 Link V3 setting changed to   1.00 by Control ToolkitAPI
   01/01/2000: 02:30:00 Link V4 setting changed to   0.75 by Control ToolkitAPI
   01/01/2000: 02:30:00 Link V6 setting changed to   0.75 by Control ToolkitAPI
   01/01/2000: 02:35:00 Link V2 setting changed to   0.25 by Control ToolkitAPI
   01/01/2000: 02:35:00 Link V3 setting changed to   0.75 by Control ToolkitAPI
   01/01/2000: 02:35:00 Link V4 setting changed to   0.25 by Control ToolkitAPI
   01/01/2000: 02:35:00 Link V6 setting changed to   0.75 by Control ToolkitAPI
   01/01/2000: 02:40:00 Link V2 setting changed to   0.25 by Control ToolkitAPI
   01/01/2000: 02:40:00 Link V3 setting changed to   1.00 by Control ToolkitAPI
   01/01/2000: 02:40:00 Link V4 setting changed to   0.25 by Control ToolkitAPI
   01/01/2000: 02:40:00 Link V6 setting changed to   0.75 by Control ToolkitAPI
   01/01/2000: 02:45:00 Link V2 setting changed to   0.25 by Control ToolkitAPI
   01/01/2000: 02:45:00 Link V3 setting changed to   0.75 by Control ToolkitAPI
   01/01/2000: 02:45:00 Link V4 setting changed to   0.25 by Control ToolkitAPI
   01/01/2000: 02:45:00 Link V6 setting changed to   0.75 by Control ToolkitAPI
   01/01/2000: 02:50:00 Link V2 setting changed to   0.00 by Control ToolkitAPI
   01/01/2000: 02:50:00 Link V3 setting changed to   1.00 by Control ToolkitAPI
   01/01/2000: 02:50:00 Link V4 setting changed to   0.25 by Control ToolkitAPI
   01/01/2000: 02:50:00 Link V6 setting changed to   0.75 by Control ToolkitAPI
   01/01/2000: 02:55:00 Link V2 setting changed to   0.25 by Control ToolkitAPI
   01/01/2000: 02:55:00 Link V3 setting changed to   0.75 by Control ToolkitAPI
   01/01/2000: 02:55:00 Link V4 setting changed to   0.25 by Control ToolkitAPI
   01/01/2000: 02:55:00 Link V6 setting changed to   0.75 by Control ToolkitAPI
   01/01/2000: 03:00:00 Link V2 setting changed to   0.00 by Control ToolkitAPI
   01/01/2000: 03:00:00 Link V3 setting changed to   1.00 by Control ToolkitAPI
   01/01/2000: 03:00:00 Link V4 setting changed to   0.25 by Control ToolkitAPI
   01/01/2000: 03:00:00 Link V6 setting changed to   0.75 by Control ToolkitAPI
   01/01/2000: 03:05:00 Link V2 setting changed to   0.25 by Control ToolkitAPI
   01/01/2000: 03:05:00 Link V3 setting changed to   0.75 by Control ToolkitAPI
   01/01/2000: 03:05:00 Link V4 setting changed to   0.25 by Control ToolkitAPI
   01/01/2000: 03:05:00 Link V6 setting changed to   0.50 by Control ToolkitAPI
   01/01/2000: 03:10:00 Link V2 setting changed to   0.00 by Control ToolkitAPI
   01/01/2000: 03:10:00 Link V3 setting changed to   1.00 by Control ToolkitAPI
   01/01/2000: 03:10:00 Link V4 setting changed to   0.25 by Control ToolkitAPI
   01/01/2000: 03:10:00 Link V6 setting changed to   0.75 by Control ToolkitAPI
   01/01/2000: 03:15:00 Link V2 setting changed to   0.25 by Control ToolkitAPI
   01/01/2000: 03:15:00 Link V3 setting changed to   0.75 by Control ToolkitAPI
   01/01/2000: 03:15:00 Link V4 setting changed to   0.25 by Control ToolkitAPI
   01/01/2000: 03:15:00 Link V6 setting changed to   0.75 by Control ToolkitAPI
   01/01/2000: 03:20:00 Link V2 setting changed to   0.00 by Control ToolkitAPI
   01/01/2000: 03:20:00 Link V3 setting changed to   1.00 by Control ToolkitAPI
   01/01/2000: 03:20:00 Link V4 setting changed to   0.25 by Control ToolkitAPI
   01/01/2000: 03:20:00 Link V6 setting changed to   0.75 by Control ToolkitAPI
   01/01/2000: 03:25:00 Link V2 setting changed to   0.25 by Control ToolkitAPI
   01/01/2000: 03:25:00 Link V3 setting changed to   0.75 by Control ToolkitAPI
   01/01/2000: 03:25:00 Link V4 setting changed to   0.25 by Control ToolkitAPI
   01/01/2000: 03:25:00 Link V6 setting changed to   0.75 by Control ToolkitAPI
   01/01/2000: 03:30:00 Link V2 setting changed to   0.00 by Control ToolkitAPI
   01/01/2000: 03:30:00 Link V3 setting changed to   1.00 by Control ToolkitAPI
   01/01/2000: 03:30:00 Link V4 setting changed to   0.25 by Control ToolkitAPI
   01/01/2000: 03:30:00 Link V6 setting changed to   0.00 by Control ToolkitAPI
   01/01/2000: 03:35:00 Link V2 setting changed to   0.25 by Control ToolkitAPI
   01/01/2000: 03:35:00 Link V3 setting changed to   0.75 by Control ToolkitAPI
   01/01/2000: 03:35:00 Link V4 setting changed to   0.25 by Control ToolkitAPI
   01/01/2000: 03:35:00 Link V6 setting changed to   0.00 by Control ToolkitAPI
   01/01/2000: 03:40:00 Link V2 setting changed to   0.00 by Control ToolkitAPI
   01/01/2000: 03:40:00 Link V3 setting changed to   0.75 by Control ToolkitAPI
   01/01/2000: 03:40:00 Link V4 setting changed to   0.25 by Control ToolkitAPI
   01/01/2000: 03:40:00 Link V6 setting changed to   0.75 by Control ToolkitAPI
   01/01/2000: 03:45:00 Link V2 setting changed to   0.25 by Control ToolkitAPI
   01/01/2000: 03:45:00 Link V3 setting changed to   0.75 by Control ToolkitAPI
   01/01/2000: 03:45:00 Link V4 setting changed to   0.25 by Control ToolkitAPI
   01/01/2000: 03:45:00 Link V6 setting changed to   0.00 by Control ToolkitAPI
   01/01/2000: 03:50:00 Link V2 setting changed to   0.00 by Control ToolkitAPI
   01/01/2000: 03:50:00 Link V3 setting changed to   0.75 by Control ToolkitAPI
   01/01/2000: 03:50:00 Link V4 setting changed to   0.25 by Control ToolkitAPI
   01/01/2000: 03:50:00 Link V6 setting changed to   0.00 by Control ToolkitAPI
   01/01/2000: 03:55:00 Link V2 setting changed to   0.00 by Control ToolkitAPI
   01/01/2000: 03:55:00 Link V3 setting changed to   0.75 by Control ToolkitAPI
   01/01/2000: 03:55:00 Link V4 setting changed to   0.25 by Control ToolkitAPI
   01/01/2000: 03:55:00 Link V6 setting changed to   0.75 by Control ToolkitAPI

  
  **************************        Volume         Depth
  Runoff Quantity Continuity     hectare-m            mm
  **************************     ---------       -------
  Total Precipitation ......         3.970        22.029
  Evaporation Loss .........         0.000         0.000
  Infiltration Loss ........         0.000         0.000
  Surface Runoff ...........         3.934        21.830
  Final Storage ............         0.051         0.281
  Continuity Error (%) .....        -0.371
  
  
  **************************        Volume        Volume
  Flow Routing Continuity        hectare-m      10^6 ltr
  **************************     ---------     ---------
  Dry Weather Inflow .......         0.027         0.268
  Wet Weather Inflow .......         3.932        39.323
  Groundwater Inflow .......         0.000         0.000
  RDII Inflow ..............         0.000         0.000
  External Inflow ..........         0.000         0.000
  External Outflow .........         0.351         3.505
  Flooding Loss ............         2.488        24.882
  Evaporation Loss .........         0.000         0.000
  Exfiltration Loss ........         0.000         0.000
  Initial Stored Volume ....         0.000         0.000
  Final Stored Volume ......         0.839         8.393
  Continuity Error (%) .....         7.099
  
  
  *************************
  Highest Continuity Errors
  *************************
  Node T2 (18.67%)
  Node T3 (17.21%)
  Node T4 (17.05%)
  Node T5 (12.31%)
  Node T6 (9.62%)
  
  
  ***************************
  Time-Step Critical Elements
  ***************************
  Link C15 (76.08%)
  
  
  ********************************
  Highest Flow Instability Indexes
  ********************************
  Link C13 (8)
  Link C11 (5)
  Link C23 (5)
  Link C3 (5)
  Link V3 (4)
  
  
  *************************
  Routing Time Step Summary
  *************************
  Minimum Time Step           :     0.11 sec
  Average Time Step           :    18.92 sec
  Maximum Time Step           :    30.00 sec
  Percent in Steady State     :     0.00
  Average Iterations per Step :     2.99
  Percent Not Converging      :     4.60
  
  
  ***************************
  Subcatchment Runoff Summary
  ***************************
  
  ------------------------------------------------------------------------------------------------------------------------------
                            Total      Total      Total      Total     Imperv       Perv      Total       Total     Peak  Runoff
                           Precip      Runon       Evap      Infil     Runoff     Runoff     Runoff      Runoff   Runoff   Coeff
  Subcatchment                 mm         mm         mm         mm         mm         mm         mm    10^6 ltr      CMS
  ------------------------------------------------------------------------------------------------------------------------------
  SC01                      22.03       0.00       0.00       0.00      21.96       0.00      21.96        7.25     2.53   0.997
  SC010                     22.03       0.00       0.00       0.00      21.87       0.00      21.87        2.57     0.82   0.993
  SC02                      22.03       0.00       0.00       0.00      21.94       0.00      21.94        4.99     1.71   0.996
  SC03                      22.03       0.00       0.00       0.00      22.02       0.00      22.02        3.96     1.46   1.000
  SC04                      22.03       0.00       0.00       0.00      21.64       0.00      21.64        1.49     0.42   0.982
  SC05                      22.03       0.00       0.00       0.00      21.94       0.00      21.94        3.42     1.17   0.996
  SC06                      22.03       0.00       0.00       0.00      21.51       0.00      21.51        7.00     1.82   0.976
  SC07                      22.03       0.00       0.00       0.00      21.65       0.00      21.65        1.03     0.29   0.983
  SC08                      22.03       0.00       0.00       0.00      21.86       0.00      21.86        6.12     1.94   0.992
  SC09                      22.03       0.00       0.00       0.00      21.79       0.00      21.79        1.50     0.46   0.989
  
  
  ******************
  Node Depth Summary
  ******************
  
  ---------------------------------------------------------------------------------
                                 Average  Maximum  Maximum  Time of Max    Reported
                                   Depth    Depth      HGL   Occurrence   Max Depth
  Node                 Type       Meters   Meters   Meters  days hr:min      Meters
  ---------------------------------------------------------------------------------
  CSO10                JUNCTION     0.51     1.00    31.00     0  00:15        1.00
  CSO7                 JUNCTION     0.64     1.20    35.20     0  00:17        1.20
  CSO8                 JUNCTION     0.96     2.00    34.00     0  00:15        2.00
  CSO9                 JUNCTION     0.94     2.00    42.00     0  00:16        2.00
  J1                   JUNCTION     0.16     0.36    34.36     0  00:30        0.36
  J10                  JUNCTION     0.22     0.42    29.42     0  00:30        0.41
  J11                  JUNCTION     0.21     0.30    31.30     0  01:16        0.30
  J12                  JUNCTION     0.78     1.05    27.05     0  01:11        1.03
  J13                  JUNCTION     0.16     0.34    29.34     0  00:30        0.34
  J14                  JUNCTION     0.09     0.19    20.19     0  01:07        0.19
  J15                  JUNCTION     0.31     0.58    15.58     0  00:36        0.58
  J16                  JUNCTION     0.17     0.38    30.38     0  00:30        0.38
  J17                  JUNCTION     0.06     0.15    20.15     0  00:55        0.15
  J18                  JUNCTION     0.12     0.16    29.16     0  00:54        0.16
  J19                  JUNCTION     0.16     0.17     8.17     0  00:33        0.17
  J2                   JUNCTION     0.07     0.08    25.08     0  01:56        0.08
  J3                   JUNCTION     0.11     0.17    18.17     0  02:25        0.17
  J4                   JUNCTION     0.38     0.96    33.96     0  00:21        0.74
  J5                   JUNCTION     0.13     0.23    32.23     0  00:35        0.23
  J6                   JUNCTION     0.07     0.12    25.12     0  02:19        0.12
  J7                   JUNCTION     0.16     0.23    39.23     0  01:17        0.23
  J8                   JUNCTION     0.25     0.45    36.45     0  00:35        0.45
  J9                   JUNCTION     0.11     0.16    29.16     0  02:20        0.16
  Out_to_WWTP          OUTFALL      0.16     0.17     6.17     0  00:33        0.17
  T1                   STORAGE      4.41     5.00    15.00     0  00:32        5.00
  T2                   STORAGE      4.33     5.00    26.00     0  00:39        5.00
  T3                   STORAGE      3.99     5.00    27.00     0  01:11        5.00
  T4                   STORAGE      4.05     5.00    32.00     0  00:55        5.00
  T5                   STORAGE      4.35     5.00    32.00     0  00:34        5.00
  T6                   STORAGE      4.30     5.00    36.00     0  00:36        5.00
  
  
  *******************
  Node Inflow Summary
  *******************
  
  -------------------------------------------------------------------------------------------------
                                  Maximum  Maximum                  Lateral       Total        Flow
                                  Lateral    Total  Time of Max      Inflow      Inflow     Balance
                                   Inflow   Inflow   Occurrence      Volume      Volume       Error
  Node                 Type           CMS      CMS  days hr:min    10^6 ltr    10^6 ltr     Percent
  -------------------------------------------------------------------------------------------------
  CSO10                JUNCTION     0.825    0.825     0  00:30        2.58        2.58       0.004
  CSO7                 JUNCTION     0.290    0.290     0  00:35        1.05        1.05       0.037
  CSO8                 JUNCTION     1.939    1.939     0  00:30        6.12        6.12       0.012
  CSO9                 JUNCTION     0.456    0.456     0  00:35        1.52        1.52       0.032
  J1                   JUNCTION     1.173    1.173     0  00:30        3.46        3.46      -0.091
  J10                  JUNCTION     1.462    1.947     0  00:30        3.99         7.2      -0.094
  J11                  JUNCTION     0.000    0.487     0  01:16           0        3.22       0.261
  J12                  JUNCTION     0.000    1.952     0  00:31           0         8.6       8.731
  J13                  JUNCTION     1.714    1.714     0  00:30        5.02        5.02      -0.258
  J14                  JUNCTION     0.000    0.190     0  01:15           0        1.31       0.687
  J15                  JUNCTION     0.000    2.794     0  00:30           0        11.3       0.697
  J16                  JUNCTION     2.531    2.531     0  00:30        7.28        7.28      -0.067
  J17                  JUNCTION     0.000    0.140     0  00:40           0       0.425       0.801
  J18                  JUNCTION     0.000    0.202     0  01:11           0        1.35       0.011
  J19                  JUNCTION     0.000    0.271     0  00:32           0        3.52       0.357
  J2                   JUNCTION     0.000    0.039     0  00:34           0       0.507       0.980
  J3                   JUNCTION     0.000    0.313     0  02:13           0        2.25       2.008
  J4                   JUNCTION     0.000    0.085     0  00:19           0       0.564       0.378
  J5                   JUNCTION     0.419    0.494     0  00:35         1.5        2.06      -0.035
  J6                   JUNCTION     0.000    0.080     0  02:10           0       0.441       0.645
  J7                   JUNCTION     0.000    0.127     0  01:17           0       0.852       0.343
  J8                   JUNCTION     1.822    1.949     0  00:35        7.07        7.92      -0.007
  J9                   JUNCTION     0.000    0.175     0  02:10           0        1.37       2.091
  Out_to_WWTP          OUTFALL      0.000    0.271     0  00:33           0        3.51       0.000
  T1                   STORAGE      0.000    2.687     0  00:31           0        11.2       7.599
  T2                   STORAGE      0.000    1.707     0  00:30           0        5.04      22.952
  T3                   STORAGE      0.000    1.933     0  00:33           0        7.91      20.781
  T4                   STORAGE      0.000    0.492     0  00:35           0        2.06      20.554
  T5                   STORAGE      0.000    1.169     0  00:30           0        3.46      14.032
  T6                   STORAGE      0.000    1.941     0  00:36           0        7.92      10.640
  
  
  **********************
  Node Surcharge Summary
  **********************
  
  Surcharging occurs when water rises above the top of the highest conduit.
  ---------------------------------------------------------------------
                                               Max. Height   Min. Depth
                                   Hours       Above Crown    Below Rim
  Node                 Type      Surcharged         Meters       Meters
  ---------------------------------------------------------------------
  CSO10                JUNCTION        1.14          0.560        0.000
  CSO7                 JUNCTION        1.71          0.945        0.000
  CSO8                 JUNCTION        1.44          1.547        0.000
  CSO9                 JUNCTION        1.72          1.682        0.000
  J4                   JUNCTION        1.66          0.665        1.035
  
  
  *********************
  Node Flooding Summary
  *********************
  
  Flooding refers to all water that overflows a node, whether it ponds or not.
  --------------------------------------------------------------------------
                                                             Total   Maximum
                                 Maximum   Time of Max       Flood    Ponded
                        Hours       Rate    Occurrence      Volume     Depth
  Node                 Flooded       CMS   days hr:min    10^6 ltr    Meters
  --------------------------------------------------------------------------
  CSO10                   1.01     0.623      0  00:30       1.230     0.000
  CSO7                    1.20     0.214      0  00:35       0.485     0.000
  CSO8                    1.01     1.453      0  00:30       2.893     0.000
  CSO9                    1.01     0.329      0  00:35       0.664     0.000
  T1                      2.82     2.395      0  00:32       6.191     0.000
  T2                      2.08     1.368      0  00:39       2.676     0.000
  T3                      1.66     1.217      0  01:14       2.633     0.000
  T4                      1.95     0.373      0  00:55       0.780     0.000
  T5                      1.93     1.084      0  00:34       2.093     0.000
  T6                      2.14     1.855      0  00:40       5.229     0.000
  
  
  **********************
  Storage Volume Summary
  **********************
  
  --------------------------------------------------------------------------------------------------
                         Average     Avg  Evap Exfil       Maximum     Max    Time of Max    Maximum
                          Volume    Pcnt  Pcnt  Pcnt        Volume    Pcnt     Occurrence    Outflow
  Storage Unit           1000 m3    Full  Loss  Loss       1000 m3    Full    days hr:min        CMS
  --------------------------------------------------------------------------------------------------
  T1                       0.618      88     0     0         0.700     100       0  00:32      0.271
  T2                       0.866      87     0     0         1.000     100       0  00:39      0.140
  T3                       2.075      80     0     0         2.600     100       0  01:11      0.429
  T4                       0.405      81     0     0         0.500     100       0  00:55      0.080
  T5                       0.435      87     0     0         0.500     100       0  00:34      0.039
  T6                       0.516      86     0     0         0.600     100       0  00:36      0.175
  
  
  ***********************
  Outfall Loading Summary
  ***********************
  
  -----------------------------------------------------------
                         Flow       Avg       Max       Total
                         Freq      Flow      Flow      Volume
  Outfall Node           Pcnt       CMS       CMS    10^6 ltr
  -----------------------------------------------------------
  Out_to_WWTP           98.03     0.247     0.271       3.505
  -----------------------------------------------------------
  System                98.03     0.247     0.271       3.505
  
  
  ********************
  Link Flow Summary
  ********************
  
  -----------------------------------------------------------------------------
                                 Maximum  Time of Max   Maximum    Max/    Max/
                                  |Flow|   Occurrence   |Veloc|    Full    Full
  Link                 Type          CMS  days hr:min     m/sec    Flow   Depth
  -----------------------------------------------------------------------------
  C1                   CONDUIT     0.040     0  01:59      1.50    0.01    0.12
  C10                  CONDUIT     1.941     0  00:36      2.38    0.20    0.65
  C11                  CONDUIT     0.305     0  02:25      1.97    0.02    0.17
  C12                  CONDUIT     0.174     0  02:20      0.50    0.01    0.30
  C13                  CONDUIT     1.933     0  00:33      3.57    0.11    0.76
  C14                  CONDUIT     0.271     0  00:33      2.08    0.02    0.09
  C15                  CONDUIT     0.487     0  01:16      3.59    1.55    0.83
  C16                  CONDUIT     0.486     0  01:16      1.82    0.05    0.18
  C17                  CONDUIT     1.925     0  00:31      3.84    0.10    0.33
  C18                  CONDUIT     1.707     0  00:30      2.99    0.06    0.59
  C19                  CONDUIT     0.140     0  00:55      0.85    0.05    0.33
  C2                   CONDUIT     0.080     0  02:19      1.93    0.09    0.24
  C20                  CONDUIT     2.519     0  00:30      4.55    0.08    0.24
  C21                  CONDUIT     0.202     0  01:11      1.86    1.16    0.69
  C22                  CONDUIT     0.202     0  00:54      1.71    0.09    0.46
  C23                  CONDUIT     2.687     0  00:31      2.91    0.30    0.69
  C3                   CONDUIT     0.194     0  02:13      2.30    0.07    0.18
  C4                   CONDUIT     1.169     0  00:30      2.69    0.28    0.68
  C5                   CONDUIT     0.085     0  00:19      1.69    1.46    1.00
  C6                   CONDUIT     0.075     0  00:35      1.28    1.19    0.89
  C7                   CONDUIT     0.492     0  00:35      2.30    0.12    0.62
  C8                   CONDUIT     0.127     0  01:17      1.89    1.60    0.86
  C9                   CONDUIT     0.127     0  01:17      1.20    0.43    0.69
  V1                   ORIFICE     0.271     0  00:32                      1.00
  V2                   ORIFICE     0.140     0  00:40                      1.00
  V3                   ORIFICE     0.190     0  01:15                      1.00
  V4                   ORIFICE     0.080     0  02:10                      1.00
  V5                   ORIFICE     0.039     0  00:34                      1.00
  V6                   ORIFICE     0.175     0  02:10                      1.00
  
  
  ***************************
  Flow Classification Summary
  ***************************
  
  -------------------------------------------------------------------------------------
                      Adjusted    ---------- Fraction of Time in Flow Class ---------- 
                       /Actual         Up    Down  Sub   Sup   Up    Down  Norm  Inlet 
  Conduit               Length    Dry  Dry   Dry   Crit  Crit  Crit  Crit  Ltd   Ctrl  
  -------------------------------------------------------------------------------------
  C1                      1.00   0.00  0.00  0.00  0.38  0.62  0.00  0.00  0.83  0.00
  C10                     1.00   0.00  0.00  0.00  0.92  0.08  0.00  0.00  0.94  0.00
  C11                     1.00   0.00  0.00  0.00  0.69  0.30  0.00  0.00  1.00  0.00
  C12                     1.00   0.00  0.01  0.00  0.98  0.00  0.00  0.00  0.98  0.00
  C13                     1.00   0.00  0.00  0.00  0.89  0.11  0.00  0.00  0.13  0.00
  C14                     1.00   0.01  0.00  0.00  0.01  0.97  0.00  0.00  0.06  0.00
  C15                     1.00   0.02  0.00  0.00  0.00  0.98  0.00  0.00  0.00  0.00
  C16                     1.00   0.00  0.02  0.00  0.27  0.71  0.00  0.00  0.23  0.00
  C17                     1.00   0.00  0.00  0.00  0.68  0.32  0.00  0.00  0.93  0.00
  C18                     1.00   0.00  0.00  0.00  0.93  0.07  0.00  0.00  0.95  0.00
  C19                     1.00   0.00  0.00  0.00  1.00  0.00  0.00  0.00  1.00  0.00
  C2                      1.00   0.00  0.03  0.00  0.32  0.65  0.00  0.00  0.86  0.00
  C20                     1.00   0.00  0.00  0.00  0.29  0.71  0.00  0.00  0.94  0.00
  C21                     1.00   0.00  0.00  0.00  0.02  0.98  0.00  0.00  0.00  0.00
  C22                     1.00   0.00  0.00  0.00  0.63  0.37  0.00  0.00  1.00  0.00
  C23                     1.00   0.00  0.00  0.00  0.92  0.08  0.00  0.00  0.89  0.00
  C3                      1.00   0.00  0.01  0.00  0.30  0.68  0.00  0.00  0.45  0.00
  C4                      1.00   0.00  0.00  0.00  0.93  0.07  0.00  0.00  0.96  0.00
  C5                      1.00   0.00  0.00  0.00  0.93  0.07  0.00  0.00  0.50  0.00
  C6                      1.00   0.00  0.00  0.00  0.67  0.33  0.00  0.00  0.01  0.00
  C7                      1.00   0.00  0.00  0.00  0.91  0.09  0.00  0.00  0.94  0.00
  C8                      1.00   0.00  0.00  0.00  0.59  0.41  0.00  0.00  0.00  0.00
  C9                      1.00   0.00  0.00  0.00  1.00  0.00  0.00  0.00  1.00  0.00
  
  
  *************************
  Conduit Surcharge Summary
  *************************
  
  ----------------------------------------------------------------------------
                                                           Hours        Hours 
                         --------- Hours Full --------   Above Full   Capacity
  Conduit                Both Ends  Upstream  Dnstream   Normal Flow   Limited
  ----------------------------------------------------------------------------
  C10                         0.01      0.01      3.57      0.01         0.01
  C13                         0.01      0.01      3.41      0.01         0.01
  C15                         0.01      1.44      0.01      1.73         0.01
  C18                         0.01      0.01      3.54      0.01         0.01
  C21                         0.01      1.14      0.01      1.11         0.01
  C23                         0.01      0.01      3.60      0.01         0.01
  C4                          0.01      0.01      3.64      0.01         0.01
  C5                          1.66      1.71      1.77      1.68         1.61
  C6                          0.01      1.66      0.01      1.36         0.01
  C7                          0.01      0.01      3.53      0.01         0.01
  C8                          0.01      1.72      0.01      1.72         0.01
  

  Analysis begun on:  Tue Dec 21 09:11:29 2021
  Analysis ended on:  Tue Dec 21 09:11:30 2021
  Total elapsed time: 00:00:01