
  EPA STORM WATER MANAGEMENT MODEL - VERSION 5.1 (Build 5.1.015)
  --------------------------------------------------------------

  
  *********************************************************
  NOTE: The summary statistics displayed in this report are
  based on results found at every computational time step,  
  not just on results from each reporting time step.
  *********************************************************
  
  ****************
  Analysis Options
  ****************
  Flow Units ............... CMS
  Process Models:
    Rainfall/Runoff ........ YES
    RDII ................... NO
    Snowmelt ............... NO
    Groundwater ............ NO
    Flow Routing ........... YES
    Ponding Allowed ........ NO
    Water Quality .......... NO
  Infiltration Method ...... HORTON
  Flow Routing Method ...... DYNWAVE
  Surcharge Method ......... EXTRAN
  Starting Date ............ 01/01/2000 00:00:00
  Ending Date .............. 01/01/2000 04:00:00
  Antecedent Dry Days ...... 0.0
  Report Time Step ......... 00:05:00
  Wet Time Step ............ 00:05:00
  Dry Time Step ............ 00:05:00
  Routing Time Step ........ 30.00 sec
  Variable Time Step ....... YES
  Maximum Trials ........... 8
  Number of Threads ........ 1
  Head Tolerance ........... 0.001500 m
  
  
  *********************
  Control Actions Taken
  *********************

  
  **************************        Volume         Depth
  Runoff Quantity Continuity     hectare-m            mm
  **************************     ---------       -------
  Total Precipitation ......         2.101        11.657
  Evaporation Loss .........         0.000         0.000
  Infiltration Loss ........         0.000         0.000
  Surface Runoff ...........         2.064        11.453
  Final Storage ............         0.043         0.240
  Continuity Error (%) .....        -0.312
  
  
  **************************        Volume        Volume
  Flow Routing Continuity        hectare-m      10^6 ltr
  **************************     ---------     ---------
  Dry Weather Inflow .......         0.027         0.268
  Wet Weather Inflow .......         2.063        20.629
  Groundwater Inflow .......         0.000         0.000
  RDII Inflow ..............         0.000         0.000
  External Inflow ..........         0.000         0.000
  External Outflow .........         0.339         3.388
  Flooding Loss ............         0.823         8.234
  Evaporation Loss .........         0.000         0.000
  Exfiltration Loss ........         0.000         0.000
  Initial Stored Volume ....         0.000         0.000
  Final Stored Volume ......         0.728         7.283
  Continuity Error (%) .....         9.530
  
  
  *************************
  Highest Continuity Errors
  *************************
  Node T3 (22.32%)
  Node T5 (22.22%)
  Node T2 (20.85%)
  Node T4 (14.59%)
  Node T6 (11.47%)
  
  
  ***************************
  Time-Step Critical Elements
  ***************************
  Link C15 (65.54%)
  
  
  ********************************
  Highest Flow Instability Indexes
  ********************************
  Link C13 (8)
  Link C3 (3)
  Link V3 (3)
  Link C5 (2)
  Link C6 (1)
  
  
  *************************
  Routing Time Step Summary
  *************************
  Minimum Time Step           :     0.38 sec
  Average Time Step           :    21.11 sec
  Maximum Time Step           :    30.00 sec
  Percent in Steady State     :     0.00
  Average Iterations per Step :     2.87
  Percent Not Converging      :     4.55
  Time Step Frequencies       :
     30.000 - 13.228 sec      :    70.29 %
     13.228 -  5.833 sec      :    28.97 %
      5.833 -  2.572 sec      :     0.59 %
      2.572 -  1.134 sec      :     0.15 %
      1.134 -  0.500 sec      :     0.00 %
  
  
  ***************************
  Subcatchment Runoff Summary
  ***************************
  
  ------------------------------------------------------------------------------------------------------------------------------
                            Total      Total      Total      Total     Imperv       Perv      Total       Total     Peak  Runoff
                           Precip      Runon       Evap      Infil     Runoff     Runoff     Runoff      Runoff   Runoff   Coeff
  Subcatchment                 mm         mm         mm         mm         mm         mm         mm    10^6 ltr      CMS
  ------------------------------------------------------------------------------------------------------------------------------
  SC01                      11.66       0.00       0.00       0.00      11.55       0.00      11.55        3.81     1.35   0.991
  SC010                     11.66       0.00       0.00       0.00      11.49       0.00      11.49        1.35     0.45   0.986
  SC02                      11.66       0.00       0.00       0.00      11.54       0.00      11.54        2.63     0.92   0.990
  SC03                      11.66       0.00       0.00       0.00      11.60       0.00      11.60        2.09     0.76   0.995
  SC04                      11.66       0.00       0.00       0.00      11.31       0.00      11.31        0.78     0.23   0.970
  SC05                      11.66       0.00       0.00       0.00      11.54       0.00      11.54        1.80     0.63   0.990
  SC06                      11.66       0.00       0.00       0.00      11.20       0.00      11.20        3.64     1.00   0.960
  SC07                      11.66       0.00       0.00       0.00      11.31       0.00      11.31        0.54     0.16   0.970
  SC08                      11.66       0.00       0.00       0.00      11.48       0.00      11.48        3.21     1.06   0.985
  SC09                      11.66       0.00       0.00       0.00      11.42       0.00      11.42        0.79     0.25   0.980
  
  
  ******************
  Node Depth Summary
  ******************
  
  ---------------------------------------------------------------------------------
                                 Average  Maximum  Maximum  Time of Max    Reported
                                   Depth    Depth      HGL   Occurrence   Max Depth
  Node                 Type       Meters   Meters   Meters  days hr:min      Meters
  ---------------------------------------------------------------------------------
  CSO10                JUNCTION     0.41     1.00    31.00     0  00:23        1.00
  CSO7                 JUNCTION     0.48     1.20    35.20     0  00:28        1.20
  CSO8                 JUNCTION     0.76     2.00    34.00     0  00:24        2.00
  CSO9                 JUNCTION     0.72     2.00    42.00     0  00:26        2.00
  J1                   JUNCTION     0.12     0.26    34.26     0  00:40        0.26
  J10                  JUNCTION     0.17     0.34    29.34     0  00:40        0.34
  J11                  JUNCTION     0.18     0.30    31.30     0  01:05        0.30
  J12                  JUNCTION     0.48     0.78    26.78     0  03:11        0.78
  J13                  JUNCTION     0.12     0.25    29.25     0  00:40        0.25
  J14                  JUNCTION     0.15     0.18    20.18     0  03:51        0.18
  J15                  JUNCTION     0.29     0.45    15.45     0  00:45        0.45
  J16                  JUNCTION     0.13     0.28    30.28     0  00:40        0.28
  J17                  JUNCTION     0.12     0.15    20.15     0  01:40        0.15
  J18                  JUNCTION     0.10     0.16    29.16     0  01:01        0.16
  J19                  JUNCTION     0.15     0.17     8.17     0  00:45        0.17
  J2                   JUNCTION     0.07     0.08    25.08     0  02:06        0.08
  J3                   JUNCTION     0.14     0.17    18.17     0  02:15        0.17
  J4                   JUNCTION     0.31     1.07    34.07     0  00:29        0.81
  J5                   JUNCTION     0.10     0.18    32.18     0  00:45        0.18
  J6                   JUNCTION     0.09     0.12    25.12     0  01:55        0.12
  J7                   JUNCTION     0.14     0.23    39.23     0  01:05        0.23
  J8                   JUNCTION     0.19     0.34    36.34     0  00:46        0.34
  J9                   JUNCTION     0.14     0.16    29.16     0  02:04        0.16
  Out_to_WWTP          OUTFALL      0.15     0.17     6.17     0  00:45        0.17
  T1                   STORAGE      4.16     5.00    15.00     0  00:44        5.00
  T2                   STORAGE      3.28     4.76    25.76     0  01:39        4.76
  T3                   STORAGE      3.30     4.79    26.79     0  03:06        4.79
  T4                   STORAGE      2.64     4.13    31.13     0  01:53        4.13
  T5                   STORAGE      3.95     5.00    32.00     0  00:53        5.00
  T6                   STORAGE      3.69     5.00    36.00     0  00:53        5.00
  
  
  *******************
  Node Inflow Summary
  *******************
  
  -------------------------------------------------------------------------------------------------
                                  Maximum  Maximum                  Lateral       Total        Flow
                                  Lateral    Total  Time of Max      Inflow      Inflow     Balance
                                   Inflow   Inflow   Occurrence      Volume      Volume       Error
  Node                 Type           CMS      CMS  days hr:min    10^6 ltr    10^6 ltr     Percent
  -------------------------------------------------------------------------------------------------
  CSO10                JUNCTION     0.449    0.449     0  00:40        1.36        1.36       0.013
  CSO7                 JUNCTION     0.159    0.159     0  00:45       0.558       0.558       0.067
  CSO8                 JUNCTION     1.058    1.058     0  00:40        3.21        3.21       0.001
  CSO9                 JUNCTION     0.249    0.249     0  00:45       0.802       0.802       0.034
  J1                   JUNCTION     0.630    0.630     0  00:40        1.84        1.84      -0.170
  J10                  JUNCTION     0.765    1.250     0  00:40        2.11        4.46      -0.078
  J11                  JUNCTION     0.000    0.486     0  01:05           0        2.35       0.277
  J12                  JUNCTION     0.000    1.352     0  00:41           0         6.5       8.663
  J13                  JUNCTION     0.918    0.918     0  00:40        2.66        2.66      -0.450
  J14                  JUNCTION     0.000    0.186     0  03:07           0        2.16       0.450
  J15                  JUNCTION     0.000    1.771     0  00:41           0        9.76       1.262
  J16                  JUNCTION     1.349    1.349     0  00:40        3.85        3.85      -0.137
  J17                  JUNCTION     0.000    0.137     0  01:39           0        1.56       0.945
  J18                  JUNCTION     0.000    0.202     0  01:01           0       0.987      -0.056
  J19                  JUNCTION     0.000    0.271     0  00:44           0         3.4       0.373
  J2                   JUNCTION     0.000    0.039     0  00:53           0       0.483       1.072
  J3                   JUNCTION     0.000    0.295     0  02:14           0        3.42       1.563
  J4                   JUNCTION     0.000    0.082     0  00:27           0       0.419       0.476
  J5                   JUNCTION     0.230    0.302     0  00:45       0.789        1.21      -0.072
  J6                   JUNCTION     0.000    0.072     0  01:53           0       0.799       0.789
  J7                   JUNCTION     0.000    0.127     0  01:05           0       0.626       0.382
  J8                   JUNCTION     1.004    1.131     0  00:45        3.71        4.34      -0.031
  J9                   JUNCTION     0.000    0.175     0  00:53           0        2.05       1.492
  Out_to_WWTP          OUTFALL      0.000    0.271     0  00:45           0        3.39       0.000
  T1                   STORAGE      0.000    1.753     0  00:45           0        9.64       9.324
  T2                   STORAGE      0.000    0.916     0  00:40           0        2.67      26.343
  T3                   STORAGE      0.000    1.344     0  00:43           0        5.98      28.736
  T4                   STORAGE      0.000    0.302     0  00:45           0        1.21      17.081
  T5                   STORAGE      0.000    0.628     0  00:40           0        1.84      28.563
  T6                   STORAGE      0.000    1.127     0  00:46           0        4.34      12.962
  
  
  **********************
  Node Surcharge Summary
  **********************
  
  Surcharging occurs when water rises above the top of the highest conduit.
  ---------------------------------------------------------------------
                                               Max. Height   Min. Depth
                                   Hours       Above Crown    Below Rim
  Node                 Type      Surcharged         Meters       Meters
  ---------------------------------------------------------------------
  CSO10                JUNCTION        0.78          0.560        0.000
  CSO7                 JUNCTION        0.98          0.945        0.000
  CSO8                 JUNCTION        0.97          1.547        0.000
  CSO9                 JUNCTION        0.99          1.682        0.000
  J4                   JUNCTION        0.94          0.771        0.929
  
  
  *********************
  Node Flooding Summary
  *********************
  
  Flooding refers to all water that overflows a node, whether it ponds or not.
  --------------------------------------------------------------------------
                                                             Total   Maximum
                                 Maximum   Time of Max       Flood    Ponded
                        Hours       Rate    Occurrence      Volume     Depth
  Node                 Flooded       CMS   days hr:min    10^6 ltr    Meters
  --------------------------------------------------------------------------
  CSO10                   0.69     0.247      0  00:40       0.372     0.000
  CSO7                    0.78     0.086      0  00:45       0.139     0.000
  CSO8                    0.69     0.572      0  00:40       0.858     0.000
  CSO9                    0.65     0.122      0  00:45       0.176     0.000
  T1                      3.26     1.483      0  00:45       4.711     0.000
  T5                      1.27     0.445      0  00:53       0.532     0.000
  T6                      1.26     0.901      0  00:53       1.442     0.000
  
  
  **********************
  Storage Volume Summary
  **********************
  
  --------------------------------------------------------------------------------------------------
                         Average     Avg  Evap Exfil       Maximum     Max    Time of Max    Maximum
                          Volume    Pcnt  Pcnt  Pcnt        Volume    Pcnt     Occurrence    Outflow
  Storage Unit           1000 m3    Full  Loss  Loss       1000 m3    Full    days hr:min        CMS
  --------------------------------------------------------------------------------------------------
  T1                       0.583      83     0     0         0.700     100       0  00:44      0.271
  T2                       0.655      66     0     0         0.951      95       0  01:39      0.137
  T3                       1.716      66     0     0         2.491      96       0  03:06      0.222
  T4                       0.264      53     0     0         0.413      83       0  01:53      0.072
  T5                       0.395      79     0     0         0.500     100       0  00:53      0.039
  T6                       0.443      74     0     0         0.600     100       0  00:53      0.175
  
  
  ***********************
  Outfall Loading Summary
  ***********************
  
  -----------------------------------------------------------
                         Flow       Avg       Max       Total
                         Freq      Flow      Flow      Volume
  Outfall Node           Pcnt       CMS       CMS    10^6 ltr
  -----------------------------------------------------------
  Out_to_WWTP           97.51     0.238     0.271       3.388
  -----------------------------------------------------------
  System                97.51     0.238     0.271       3.388
  
  
  ********************
  Link Flow Summary
  ********************
  
  -----------------------------------------------------------------------------
                                 Maximum  Time of Max   Maximum    Max/    Max/
                                  |Flow|   Occurrence   |Veloc|    Full    Full
  Link                 Type          CMS  days hr:min     m/sec    Flow   Depth
  -----------------------------------------------------------------------------
  C1                   CONDUIT     0.039     0  01:41      1.09    0.01    0.12
  C10                  CONDUIT     1.127     0  00:46      2.35    0.12    0.61
  C11                  CONDUIT     0.295     0  02:15      1.83    0.01    0.14
  C12                  CONDUIT     0.175     0  02:04      0.96    0.01    0.24
  C13                  CONDUIT     1.344     0  00:43      3.11    0.08    0.70
  C14                  CONDUIT     0.271     0  00:45      2.08    0.02    0.09
  C15                  CONDUIT     0.486     0  01:05      3.49    1.55    0.83
  C16                  CONDUIT     0.486     0  00:56      1.81    0.05    0.16
  C17                  CONDUIT     1.246     0  00:40      3.30    0.06    0.21
  C18                  CONDUIT     0.916     0  00:40      2.55    0.03    0.56
  C19                  CONDUIT     0.137     0  01:40      1.25    0.05    0.29
  C2                   CONDUIT     0.072     0  01:55      1.41    0.08    0.24
  C20                  CONDUIT     1.346     0  00:40      3.51    0.04    0.18
  C21                  CONDUIT     0.202     0  01:01      1.85    1.16    0.69
  C22                  CONDUIT     0.202     0  01:01      1.66    0.09    0.38
  C23                  CONDUIT     1.753     0  00:45      2.50    0.19    0.65
  C3                   CONDUIT     0.186     0  03:07      2.02    0.07    0.18
  C4                   CONDUIT     0.628     0  00:40      2.25    0.15    0.63
  C5                   CONDUIT     0.082     0  00:27      1.61    1.40    1.00
  C6                   CONDUIT     0.073     0  00:45      1.27    1.16    0.81
  C7                   CONDUIT     0.302     0  00:45      2.01    0.07    0.59
  C8                   CONDUIT     0.127     0  01:05      1.80    1.60    0.86
  C9                   CONDUIT     0.127     0  01:05      1.28    0.43    0.58
  V1                   ORIFICE     0.271     0  00:44                      1.00
  V2                   ORIFICE     0.137     0  01:39                      1.00
  V3                   ORIFICE     0.186     0  03:07                      1.00
  V4                   ORIFICE     0.072     0  01:53                      1.00
  V5                   ORIFICE     0.039     0  00:53                      1.00
  V6                   ORIFICE     0.175     0  00:53                      1.00
  
  
  ***************************
  Flow Classification Summary
  ***************************
  
  -------------------------------------------------------------------------------------
                      Adjusted    ---------- Fraction of Time in Flow Class ---------- 
                       /Actual         Up    Down  Sub   Sup   Up    Down  Norm  Inlet 
  Conduit               Length    Dry  Dry   Dry   Crit  Crit  Crit  Crit  Ltd   Ctrl  
  -------------------------------------------------------------------------------------
  C1                      1.00   0.00  0.00  0.00  0.84  0.16  0.00  0.00  0.89  0.00
  C10                     1.00   0.00  0.00  0.00  0.89  0.11  0.00  0.00  0.92  0.00
  C11                     1.00   0.00  0.00  0.00  0.46  0.54  0.00  0.00  1.00  0.00
  C12                     1.00   0.00  0.00  0.00  1.00  0.00  0.00  0.00  1.00  0.00
  C13                     1.00   0.00  0.00  0.00  0.85  0.14  0.00  0.00  0.24  0.00
  C14                     1.00   0.01  0.00  0.00  0.02  0.97  0.00  0.00  0.00  0.00
  C15                     1.00   0.02  0.00  0.00  0.00  0.98  0.00  0.00  0.00  0.00
  C16                     1.00   0.00  0.02  0.00  0.10  0.88  0.00  0.00  0.18  0.00
  C17                     1.00   0.00  0.00  0.00  0.49  0.51  0.00  0.00  0.91  0.00
  C18                     1.00   0.00  0.00  0.00  0.91  0.09  0.00  0.00  0.93  0.00
  C19                     1.00   0.00  0.00  0.00  0.64  0.35  0.00  0.00  1.00  0.00
  C2                      1.00   0.00  0.00  0.00  0.03  0.96  0.00  0.00  0.94  0.00
  C20                     1.00   0.00  0.00  0.00  0.44  0.56  0.00  0.00  0.95  0.00
  C21                     1.00   0.00  0.00  0.00  0.02  0.98  0.00  0.00  0.00  0.00
  C22                     1.00   0.00  0.00  0.00  0.85  0.15  0.00  0.00  1.00  0.00
  C23                     1.00   0.00  0.00  0.00  0.90  0.10  0.00  0.00  0.91  0.00
  C3                      1.00   0.00  0.01  0.00  0.05  0.93  0.00  0.00  0.07  0.00
  C4                      1.00   0.00  0.00  0.00  0.92  0.08  0.00  0.00  0.94  0.00
  C5                      1.00   0.00  0.00  0.00  0.90  0.10  0.00  0.00  0.65  0.00
  C6                      1.00   0.00  0.00  0.00  0.51  0.49  0.00  0.00  0.01  0.00
  C7                      1.00   0.00  0.00  0.00  0.88  0.12  0.00  0.00  0.91  0.00
  C8                      1.00   0.00  0.00  0.00  0.40  0.60  0.00  0.00  0.00  0.00
  C9                      1.00   0.00  0.00  0.00  1.00  0.00  0.00  0.00  1.00  0.00
  
  
  *************************
  Conduit Surcharge Summary
  *************************
  
  ----------------------------------------------------------------------------
                                                           Hours        Hours 
                         --------- Hours Full --------   Above Full   Capacity
  Conduit                Both Ends  Upstream  Dnstream   Normal Flow   Limited
  ----------------------------------------------------------------------------
  C10                         0.01      0.01      3.40      0.01         0.01
  C13                         0.01      0.01      3.19      0.01         0.01
  C15                         0.01      0.97      0.01      1.00         0.01
  C18                         0.01      0.01      3.32      0.01         0.01
  C21                         0.01      0.78      0.01      0.76         0.01
  C23                         0.01      0.01      3.47      0.01         0.01
  C4                          0.01      0.01      3.52      0.01         0.01
  C5                          0.94      0.98      1.05      0.98         0.91
  C6                          0.01      0.94      0.01      0.84         0.01
  C7                          0.01      0.01      3.35      0.01         0.01
  C8                          0.01      0.99      0.01      1.00         0.01
  

  Analysis begun on:  Tue Dec 21 09:11:23 2021
  Analysis ended on:  Tue Dec 21 09:11:23 2021
  Total elapsed time: < 1 sec