
  EPA STORM WATER MANAGEMENT MODEL - VERSION 5.1 (Build 5.3.0.dev0)
  --------------------------------------------------------------

  
  *********************************************************
  NOTE: The summary statistics displayed in this report are
  based on results found at every computational time step,  
  not just on results from each reporting time step.
  *********************************************************
  
  ****************
  Analysis Options
  ****************
  Flow Units ............... CMS
  Process Models:
    Rainfall/Runoff ........ YES
    RDII ................... NO
    Snowmelt ............... NO
    Groundwater ............ NO
    Flow Routing ........... YES
    Ponding Allowed ........ NO
    Water Quality .......... NO
  Infiltration Method ...... HORTON
  Flow Routing Method ...... DYNWAVE
  Surcharge Method ......... EXTRAN
  Starting Date ............ 01/01/2000 00:00:00
  Ending Date .............. 01/01/2000 04:00:00
  Antecedent Dry Days ...... 0.0
  Report Time Step ......... 00:05:00
  Wet Time Step ............ 00:05:00
  Dry Time Step ............ 00:05:00
  Routing Time Step ........ 30.00 sec
  Variable Time Step ....... YES
  Maximum Trials ........... 8
  Number of Threads ........ 1
  Head Tolerance ........... 0.001500 m
  
  
  *********************
  Control Actions Taken
  *********************
   01/01/2000: 00:00:01 Link V2 setting changed to   0.50 by Control ToolkitAPI
   01/01/2000: 00:00:01 Link V3 setting changed to   0.25 by Control ToolkitAPI
   01/01/2000: 00:00:01 Link V4 setting changed to   0.00 by Control ToolkitAPI
   01/01/2000: 00:00:01 Link V6 setting changed to   0.00 by Control ToolkitAPI
   01/01/2000: 00:05:00 Link V2 setting changed to   0.50 by Control ToolkitAPI
   01/01/2000: 00:05:00 Link V3 setting changed to   0.25 by Control ToolkitAPI
   01/01/2000: 00:05:00 Link V4 setting changed to   0.00 by Control ToolkitAPI
   01/01/2000: 00:05:00 Link V6 setting changed to   0.75 by Control ToolkitAPI
   01/01/2000: 00:10:00 Link V2 setting changed to   0.50 by Control ToolkitAPI
   01/01/2000: 00:10:00 Link V3 setting changed to   0.25 by Control ToolkitAPI
   01/01/2000: 00:10:00 Link V4 setting changed to   0.00 by Control ToolkitAPI
   01/01/2000: 00:10:00 Link V6 setting changed to   0.75 by Control ToolkitAPI
   01/01/2000: 00:15:00 Link V2 setting changed to   0.50 by Control ToolkitAPI
   01/01/2000: 00:15:00 Link V3 setting changed to   0.25 by Control ToolkitAPI
   01/01/2000: 00:15:00 Link V4 setting changed to   0.25 by Control ToolkitAPI
   01/01/2000: 00:15:00 Link V6 setting changed to   0.75 by Control ToolkitAPI
   01/01/2000: 00:20:00 Link V2 setting changed to   0.25 by Control ToolkitAPI
   01/01/2000: 00:20:00 Link V3 setting changed to   0.00 by Control ToolkitAPI
   01/01/2000: 00:20:00 Link V4 setting changed to   1.00 by Control ToolkitAPI
   01/01/2000: 00:20:00 Link V6 setting changed to   0.00 by Control ToolkitAPI
   01/01/2000: 00:25:00 Link V2 setting changed to   0.75 by Control ToolkitAPI
   01/01/2000: 00:25:00 Link V3 setting changed to   0.25 by Control ToolkitAPI
   01/01/2000: 00:25:00 Link V4 setting changed to   0.50 by Control ToolkitAPI
   01/01/2000: 00:25:00 Link V6 setting changed to   1.00 by Control ToolkitAPI
   01/01/2000: 00:30:00 Link V2 setting changed to   0.00 by Control ToolkitAPI
   01/01/2000: 00:30:00 Link V3 setting changed to   0.25 by Control ToolkitAPI
   01/01/2000: 00:30:00 Link V4 setting changed to   0.50 by Control ToolkitAPI
   01/01/2000: 00:30:00 Link V6 setting changed to   0.00 by Control ToolkitAPI
   01/01/2000: 00:35:00 Link V2 setting changed to   0.00 by Control ToolkitAPI
   01/01/2000: 00:35:00 Link V3 setting changed to   0.25 by Control ToolkitAPI
   01/01/2000: 00:35:00 Link V4 setting changed to   0.50 by Control ToolkitAPI
   01/01/2000: 00:35:00 Link V6 setting changed to   0.00 by Control ToolkitAPI
   01/01/2000: 00:40:00 Link V2 setting changed to   0.25 by Control ToolkitAPI
   01/01/2000: 00:40:00 Link V3 setting changed to   0.25 by Control ToolkitAPI
   01/01/2000: 00:40:00 Link V4 setting changed to   1.00 by Control ToolkitAPI
   01/01/2000: 00:40:00 Link V6 setting changed to   0.75 by Control ToolkitAPI
   01/01/2000: 00:45:00 Link V2 setting changed to   0.00 by Control ToolkitAPI
   01/01/2000: 00:45:00 Link V3 setting changed to   0.25 by Control ToolkitAPI
   01/01/2000: 00:45:00 Link V4 setting changed to   1.00 by Control ToolkitAPI
   01/01/2000: 00:45:00 Link V6 setting changed to   0.25 by Control ToolkitAPI
   01/01/2000: 00:50:00 Link V2 setting changed to   0.00 by Control ToolkitAPI
   01/01/2000: 00:50:00 Link V3 setting changed to   0.25 by Control ToolkitAPI
   01/01/2000: 00:50:00 Link V4 setting changed to   0.25 by Control ToolkitAPI
   01/01/2000: 00:50:00 Link V6 setting changed to   0.00 by Control ToolkitAPI
   01/01/2000: 00:55:00 Link V2 setting changed to   0.00 by Control ToolkitAPI
   01/01/2000: 00:55:00 Link V3 setting changed to   0.00 by Control ToolkitAPI
   01/01/2000: 00:55:00 Link V4 setting changed to   0.25 by Control ToolkitAPI
   01/01/2000: 00:55:00 Link V6 setting changed to   0.50 by Control ToolkitAPI
   01/01/2000: 01:00:00 Link V2 setting changed to   0.00 by Control ToolkitAPI
   01/01/2000: 01:00:00 Link V3 setting changed to   0.00 by Control ToolkitAPI
   01/01/2000: 01:00:00 Link V4 setting changed to   0.25 by Control ToolkitAPI
   01/01/2000: 01:00:00 Link V6 setting changed to   0.75 by Control ToolkitAPI
   01/01/2000: 01:05:00 Link V2 setting changed to   0.00 by Control ToolkitAPI
   01/01/2000: 01:05:00 Link V3 setting changed to   0.00 by Control ToolkitAPI
   01/01/2000: 01:05:00 Link V4 setting changed to   0.25 by Control ToolkitAPI
   01/01/2000: 01:05:00 Link V6 setting changed to   0.75 by Control ToolkitAPI
   01/01/2000: 01:10:00 Link V2 setting changed to   0.00 by Control ToolkitAPI
   01/01/2000: 01:10:00 Link V3 setting changed to   0.00 by Control ToolkitAPI
   01/01/2000: 01:10:00 Link V4 setting changed to   0.25 by Control ToolkitAPI
   01/01/2000: 01:10:00 Link V6 setting changed to   0.75 by Control ToolkitAPI
   01/01/2000: 01:15:00 Link V2 setting changed to   0.00 by Control ToolkitAPI
   01/01/2000: 01:15:00 Link V3 setting changed to   0.00 by Control ToolkitAPI
   01/01/2000: 01:15:00 Link V4 setting changed to   0.00 by Control ToolkitAPI
   01/01/2000: 01:15:00 Link V6 setting changed to   0.75 by Control ToolkitAPI
   01/01/2000: 01:20:00 Link V2 setting changed to   0.00 by Control ToolkitAPI
   01/01/2000: 01:20:00 Link V3 setting changed to   0.00 by Control ToolkitAPI
   01/01/2000: 01:20:00 Link V4 setting changed to   0.00 by Control ToolkitAPI
   01/01/2000: 01:20:00 Link V6 setting changed to   0.75 by Control ToolkitAPI
   01/01/2000: 01:25:00 Link V2 setting changed to   0.00 by Control ToolkitAPI
   01/01/2000: 01:25:00 Link V3 setting changed to   0.00 by Control ToolkitAPI
   01/01/2000: 01:25:00 Link V4 setting changed to   0.00 by Control ToolkitAPI
   01/01/2000: 01:25:00 Link V6 setting changed to   0.75 by Control ToolkitAPI
   01/01/2000: 01:30:00 Link V2 setting changed to   0.00 by Control ToolkitAPI
   01/01/2000: 01:30:00 Link V3 setting changed to   0.00 by Control ToolkitAPI
   01/01/2000: 01:30:00 Link V4 setting changed to   0.00 by Control ToolkitAPI
   01/01/2000: 01:30:00 Link V6 setting changed to   0.75 by Control ToolkitAPI
   01/01/2000: 01:35:00 Link V2 setting changed to   0.00 by Control ToolkitAPI
   01/01/2000: 01:35:00 Link V3 setting changed to   0.00 by Control ToolkitAPI
   01/01/2000: 01:35:00 Link V4 setting changed to   0.00 by Control ToolkitAPI
   01/01/2000: 01:35:00 Link V6 setting changed to   0.75 by Control ToolkitAPI
   01/01/2000: 01:40:00 Link V2 setting changed to   0.00 by Control ToolkitAPI
   01/01/2000: 01:40:00 Link V3 setting changed to   0.00 by Control ToolkitAPI
   01/01/2000: 01:40:00 Link V4 setting changed to   0.00 by Control ToolkitAPI
   01/01/2000: 01:40:00 Link V6 setting changed to   1.00 by Control ToolkitAPI
   01/01/2000: 01:45:00 Link V2 setting changed to   0.00 by Control ToolkitAPI
   01/01/2000: 01:45:00 Link V3 setting changed to   0.00 by Control ToolkitAPI
   01/01/2000: 01:45:00 Link V4 setting changed to   0.00 by Control ToolkitAPI
   01/01/2000: 01:45:00 Link V6 setting changed to   1.00 by Control ToolkitAPI
   01/01/2000: 01:50:00 Link V2 setting changed to   0.00 by Control ToolkitAPI
   01/01/2000: 01:50:00 Link V3 setting changed to   0.00 by Control ToolkitAPI
   01/01/2000: 01:50:00 Link V4 setting changed to   0.25 by Control ToolkitAPI
   01/01/2000: 01:50:00 Link V6 setting changed to   1.00 by Control ToolkitAPI
   01/01/2000: 01:55:00 Link V2 setting changed to   0.50 by Control ToolkitAPI
   01/01/2000: 01:55:00 Link V3 setting changed to   0.00 by Control ToolkitAPI
   01/01/2000: 01:55:00 Link V4 setting changed to   0.25 by Control ToolkitAPI
   01/01/2000: 01:55:00 Link V6 setting changed to   1.00 by Control ToolkitAPI
   01/01/2000: 02:00:00 Link V2 setting changed to   0.50 by Control ToolkitAPI
   01/01/2000: 02:00:00 Link V3 setting changed to   0.00 by Control ToolkitAPI
   01/01/2000: 02:00:00 Link V4 setting changed to   0.25 by Control ToolkitAPI
   01/01/2000: 02:00:00 Link V6 setting changed to   1.00 by Control ToolkitAPI
   01/01/2000: 02:05:00 Link V2 setting changed to   0.50 by Control ToolkitAPI
   01/01/2000: 02:05:00 Link V3 setting changed to   0.00 by Control ToolkitAPI
   01/01/2000: 02:05:00 Link V4 setting changed to   0.25 by Control ToolkitAPI
   01/01/2000: 02:05:00 Link V6 setting changed to   1.00 by Control ToolkitAPI
   01/01/2000: 02:10:00 Link V2 setting changed to   0.00 by Control ToolkitAPI
   01/01/2000: 02:10:00 Link V3 setting changed to   0.00 by Control ToolkitAPI
   01/01/2000: 02:10:00 Link V4 setting changed to   0.00 by Control ToolkitAPI
   01/01/2000: 02:10:00 Link V6 setting changed to   0.75 by Control ToolkitAPI
   01/01/2000: 02:15:00 Link V2 setting changed to   0.00 by Control ToolkitAPI
   01/01/2000: 02:15:00 Link V3 setting changed to   0.00 by Control ToolkitAPI
   01/01/2000: 02:15:00 Link V4 setting changed to   0.00 by Control ToolkitAPI
   01/01/2000: 02:15:00 Link V6 setting changed to   0.75 by Control ToolkitAPI
   01/01/2000: 02:20:00 Link V2 setting changed to   0.25 by Control ToolkitAPI
   01/01/2000: 02:20:00 Link V3 setting changed to   0.00 by Control ToolkitAPI
   01/01/2000: 02:20:00 Link V4 setting changed to   0.25 by Control ToolkitAPI
   01/01/2000: 02:20:00 Link V6 setting changed to   0.75 by Control ToolkitAPI
   01/01/2000: 02:25:00 Link V2 setting changed to   0.00 by Control ToolkitAPI
   01/01/2000: 02:25:00 Link V3 setting changed to   0.00 by Control ToolkitAPI
   01/01/2000: 02:25:00 Link V4 setting changed to   0.00 by Control ToolkitAPI
   01/01/2000: 02:25:00 Link V6 setting changed to   0.75 by Control ToolkitAPI
   01/01/2000: 02:30:00 Link V2 setting changed to   0.25 by Control ToolkitAPI
   01/01/2000: 02:30:00 Link V3 setting changed to   0.00 by Control ToolkitAPI
   01/01/2000: 02:30:00 Link V4 setting changed to   0.25 by Control ToolkitAPI
   01/01/2000: 02:30:00 Link V6 setting changed to   0.75 by Control ToolkitAPI
   01/01/2000: 02:35:00 Link V2 setting changed to   0.00 by Control ToolkitAPI
   01/01/2000: 02:35:00 Link V3 setting changed to   0.25 by Control ToolkitAPI
   01/01/2000: 02:35:00 Link V4 setting changed to   0.25 by Control ToolkitAPI
   01/01/2000: 02:35:00 Link V6 setting changed to   0.75 by Control ToolkitAPI
   01/01/2000: 02:40:00 Link V2 setting changed to   0.25 by Control ToolkitAPI
   01/01/2000: 02:40:00 Link V3 setting changed to   0.00 by Control ToolkitAPI
   01/01/2000: 02:40:00 Link V4 setting changed to   0.25 by Control ToolkitAPI
   01/01/2000: 02:40:00 Link V6 setting changed to   0.50 by Control ToolkitAPI
   01/01/2000: 02:45:00 Link V2 setting changed to   0.00 by Control ToolkitAPI
   01/01/2000: 02:45:00 Link V3 setting changed to   0.00 by Control ToolkitAPI
   01/01/2000: 02:45:00 Link V4 setting changed to   0.25 by Control ToolkitAPI
   01/01/2000: 02:45:00 Link V6 setting changed to   0.75 by Control ToolkitAPI
   01/01/2000: 02:50:00 Link V2 setting changed to   0.25 by Control ToolkitAPI
   01/01/2000: 02:50:00 Link V3 setting changed to   0.00 by Control ToolkitAPI
   01/01/2000: 02:50:00 Link V4 setting changed to   0.25 by Control ToolkitAPI
   01/01/2000: 02:50:00 Link V6 setting changed to   0.75 by Control ToolkitAPI
   01/01/2000: 02:55:00 Link V2 setting changed to   0.00 by Control ToolkitAPI
   01/01/2000: 02:55:00 Link V3 setting changed to   0.00 by Control ToolkitAPI
   01/01/2000: 02:55:00 Link V4 setting changed to   0.25 by Control ToolkitAPI
   01/01/2000: 02:55:00 Link V6 setting changed to   0.75 by Control ToolkitAPI
   01/01/2000: 03:00:00 Link V2 setting changed to   0.25 by Control ToolkitAPI
   01/01/2000: 03:00:00 Link V3 setting changed to   0.00 by Control ToolkitAPI
   01/01/2000: 03:00:00 Link V4 setting changed to   0.25 by Control ToolkitAPI
   01/01/2000: 03:00:00 Link V6 setting changed to   0.00 by Control ToolkitAPI
   01/01/2000: 03:05:00 Link V2 setting changed to   0.00 by Control ToolkitAPI
   01/01/2000: 03:05:00 Link V3 setting changed to   0.00 by Control ToolkitAPI
   01/01/2000: 03:05:00 Link V4 setting changed to   0.25 by Control ToolkitAPI
   01/01/2000: 03:05:00 Link V6 setting changed to   0.75 by Control ToolkitAPI
   01/01/2000: 03:10:00 Link V2 setting changed to   0.25 by Control ToolkitAPI
   01/01/2000: 03:10:00 Link V3 setting changed to   0.75 by Control ToolkitAPI
   01/01/2000: 03:10:00 Link V4 setting changed to   0.00 by Control ToolkitAPI
   01/01/2000: 03:10:00 Link V6 setting changed to   0.00 by Control ToolkitAPI
   01/01/2000: 03:15:00 Link V2 setting changed to   0.00 by Control ToolkitAPI
   01/01/2000: 03:15:00 Link V3 setting changed to   0.75 by Control ToolkitAPI
   01/01/2000: 03:15:00 Link V4 setting changed to   0.25 by Control ToolkitAPI
   01/01/2000: 03:15:00 Link V6 setting changed to   0.00 by Control ToolkitAPI
   01/01/2000: 03:20:00 Link V2 setting changed to   0.00 by Control ToolkitAPI
   01/01/2000: 03:20:00 Link V3 setting changed to   0.75 by Control ToolkitAPI
   01/01/2000: 03:20:00 Link V4 setting changed to   0.00 by Control ToolkitAPI
   01/01/2000: 03:20:00 Link V6 setting changed to   0.75 by Control ToolkitAPI
   01/01/2000: 03:25:00 Link V2 setting changed to   0.25 by Control ToolkitAPI
   01/01/2000: 03:25:00 Link V3 setting changed to   0.00 by Control ToolkitAPI
   01/01/2000: 03:25:00 Link V4 setting changed to   0.25 by Control ToolkitAPI
   01/01/2000: 03:25:00 Link V6 setting changed to   0.00 by Control ToolkitAPI
   01/01/2000: 03:30:00 Link V2 setting changed to   0.00 by Control ToolkitAPI
   01/01/2000: 03:30:00 Link V3 setting changed to   0.75 by Control ToolkitAPI
   01/01/2000: 03:30:00 Link V4 setting changed to   0.00 by Control ToolkitAPI
   01/01/2000: 03:30:00 Link V6 setting changed to   0.00 by Control ToolkitAPI
   01/01/2000: 03:35:00 Link V2 setting changed to   0.00 by Control ToolkitAPI
   01/01/2000: 03:35:00 Link V3 setting changed to   0.00 by Control ToolkitAPI
   01/01/2000: 03:35:00 Link V4 setting changed to   0.50 by Control ToolkitAPI
   01/01/2000: 03:35:00 Link V6 setting changed to   0.75 by Control ToolkitAPI
   01/01/2000: 03:40:00 Link V2 setting changed to   0.25 by Control ToolkitAPI
   01/01/2000: 03:40:00 Link V3 setting changed to   0.75 by Control ToolkitAPI
   01/01/2000: 03:40:00 Link V4 setting changed to   0.00 by Control ToolkitAPI
   01/01/2000: 03:40:00 Link V6 setting changed to   0.00 by Control ToolkitAPI
   01/01/2000: 03:45:00 Link V2 setting changed to   0.00 by Control ToolkitAPI
   01/01/2000: 03:45:00 Link V3 setting changed to   0.00 by Control ToolkitAPI
   01/01/2000: 03:45:00 Link V4 setting changed to   0.50 by Control ToolkitAPI
   01/01/2000: 03:45:00 Link V6 setting changed to   0.00 by Control ToolkitAPI
   01/01/2000: 03:50:00 Link V2 setting changed to   0.00 by Control ToolkitAPI
   01/01/2000: 03:50:00 Link V3 setting changed to   0.75 by Control ToolkitAPI
   01/01/2000: 03:50:00 Link V4 setting changed to   0.00 by Control ToolkitAPI
   01/01/2000: 03:50:00 Link V6 setting changed to   0.00 by Control ToolkitAPI
   01/01/2000: 03:55:00 Link V2 setting changed to   0.00 by Control ToolkitAPI
   01/01/2000: 03:55:00 Link V3 setting changed to   0.00 by Control ToolkitAPI
   01/01/2000: 03:55:00 Link V4 setting changed to   0.50 by Control ToolkitAPI
   01/01/2000: 03:55:00 Link V6 setting changed to   0.75 by Control ToolkitAPI

  
  **************************        Volume         Depth
  Runoff Quantity Continuity     hectare-m            mm
  **************************     ---------       -------
  Total Precipitation ......         1.641         9.105
  Evaporation Loss .........         0.000         0.000
  Infiltration Loss ........         0.000         0.000
  Surface Runoff ...........         1.604         8.899
  Final Storage ............         0.043         0.241
  Continuity Error (%) .....        -0.384
  
  
  **************************        Volume        Volume
  Flow Routing Continuity        hectare-m      10^6 ltr
  **************************     ---------     ---------
  Dry Weather Inflow .......         0.027         0.268
  Wet Weather Inflow .......         1.603        16.027
  Groundwater Inflow .......         0.000         0.000
  RDII Inflow ..............         0.000         0.000
  External Inflow ..........         0.000         0.000
  External Outflow .........         0.297         2.971
  Flooding Loss ............         0.278         2.781
  Evaporation Loss .........         0.000         0.000
  Exfiltration Loss ........         0.000         0.000
  Initial Stored Volume ....         0.000         0.000
  Final Stored Volume ......         0.800         7.999
  Continuity Error (%) .....        15.611
  
  
  *************************
  Highest Continuity Errors
  *************************
  Node T2 (45.25%)
  Node T4 (35.29%)
  Node T3 (30.86%)
  Node T5 (28.87%)
  Node T6 (23.14%)
  
  
  ***************************
  Time-Step Critical Elements
  ***************************
  Link C15 (61.22%)
  
  
  ********************************
  Highest Flow Instability Indexes
  ********************************
  Link C13 (7)
  Link C19 (5)
  Link C23 (5)
  Link C2 (4)
  Link C14 (4)
  
  
  *************************
  Routing Time Step Summary
  *************************
  Minimum Time Step           :     0.63 sec
  Average Time Step           :    21.98 sec
  Maximum Time Step           :    30.00 sec
  Percent in Steady State     :     0.00
  Average Iterations per Step :     2.87
  Percent Not Converging      :     4.58
  
  
  ***************************
  Subcatchment Runoff Summary
  ***************************
  
  ------------------------------------------------------------------------------------------------------------------------------
                            Total      Total      Total      Total     Imperv       Perv      Total       Total     Peak  Runoff
                           Precip      Runon       Evap      Infil     Runoff     Runoff     Runoff      Runoff   Runoff   Coeff
  Subcatchment                 mm         mm         mm         mm         mm         mm         mm    10^6 ltr      CMS
  ------------------------------------------------------------------------------------------------------------------------------
  SC01                       9.11       0.00       0.00       0.00       9.00       0.00       9.00        2.97     1.20   0.988
  SC010                      9.11       0.00       0.00       0.00       8.93       0.00       8.93        1.05     0.39   0.981
  SC02                       9.11       0.00       0.00       0.00       8.99       0.00       8.99        2.04     0.81   0.987
  SC03                       9.11       0.00       0.00       0.00       9.05       0.00       9.05        1.63     0.70   0.993
  SC04                       9.11       0.00       0.00       0.00       8.75       0.00       8.75        0.60     0.18   0.961
  SC05                       9.11       0.00       0.00       0.00       8.98       0.00       8.98        1.40     0.55   0.987
  SC06                       9.11       0.00       0.00       0.00       8.64       0.00       8.64        2.81     0.77   0.949
  SC07                       9.11       0.00       0.00       0.00       8.75       0.00       8.75        0.42     0.12   0.961
  SC08                       9.11       0.00       0.00       0.00       8.92       0.00       8.92        2.50     0.91   0.980
  SC09                       9.11       0.00       0.00       0.00       8.87       0.00       8.87        0.61     0.20   0.974
  
  
  ******************
  Node Depth Summary
  ******************
  
  ---------------------------------------------------------------------------------
                                 Average  Maximum  Maximum  Time of Max    Reported
                                   Depth    Depth      HGL   Occurrence   Max Depth
  Node                 Type       Meters   Meters   Meters  days hr:min      Meters
  ---------------------------------------------------------------------------------
  CSO10                JUNCTION     0.36     1.00    31.00     0  00:34        1.00
  CSO7                 JUNCTION     0.40     1.20    35.20     0  00:38        1.20
  CSO8                 JUNCTION     0.66     2.00    34.00     0  00:34        2.00
  CSO9                 JUNCTION     0.61     2.00    42.00     0  00:36        2.00
  J1                   JUNCTION     0.11     0.25    34.25     0  00:45        0.25
  J10                  JUNCTION     0.16     0.33    29.33     0  00:45        0.33
  J11                  JUNCTION     0.16     0.30    31.30     0  01:07        0.30
  J12                  JUNCTION     0.46     0.95    26.95     0  03:11        0.93
  J13                  JUNCTION     0.10     0.24    29.24     0  00:45        0.24
  J14                  JUNCTION     0.03     0.17    20.17     0  03:13        0.17
  J15                  JUNCTION     0.20     0.40    15.40     0  00:47        0.40
  J16                  JUNCTION     0.11     0.26    30.26     0  00:45        0.26
  J17                  JUNCTION     0.03     0.11    20.11     0  02:08        0.11
  J18                  JUNCTION     0.09     0.16    29.16     0  01:07        0.16
  J19                  JUNCTION     0.14     0.17     8.17     0  00:59        0.17
  J2                   JUNCTION     0.07     0.08    25.08     0  01:50        0.08
  J3                   JUNCTION     0.07     0.14    18.14     0  03:21        0.14
  J4                   JUNCTION     0.27     1.02    34.02     0  00:40        0.73
  J5                   JUNCTION     0.09     0.17    32.17     0  00:50        0.17
  J6                   JUNCTION     0.04     0.08    25.08     0  03:40        0.08
  J7                   JUNCTION     0.12     0.23    39.23     0  01:06        0.23
  J8                   JUNCTION     0.16     0.31    36.31     0  00:50        0.31
  J9                   JUNCTION     0.10     0.16    29.16     0  02:08        0.16
  Out_to_WWTP          OUTFALL      0.14     0.17     6.17     0  01:54        0.17
  T1                   STORAGE      3.51     5.00    15.00     0  00:58        5.00
  T2                   STORAGE      3.44     4.96    25.96     0  02:50        4.96
  T3                   STORAGE      3.05     4.94    26.94     0  03:15        4.94
  T4                   STORAGE      2.97     4.83    31.83     0  03:35        4.83
  T5                   STORAGE      3.66     5.00    32.00     0  01:17        5.00
  T6                   STORAGE      3.71     5.00    36.00     0  01:06        5.00
  
  
  *******************
  Node Inflow Summary
  *******************
  
  -------------------------------------------------------------------------------------------------
                                  Maximum  Maximum                  Lateral       Total        Flow
                                  Lateral    Total  Time of Max      Inflow      Inflow     Balance
                                   Inflow   Inflow   Occurrence      Volume      Volume       Error
  Node                 Type           CMS      CMS  days hr:min    10^6 ltr    10^6 ltr     Percent
  -------------------------------------------------------------------------------------------------
  CSO10                JUNCTION     0.386    0.386     0  00:45        1.06        1.06       0.014
  CSO7                 JUNCTION     0.126    0.126     0  00:50       0.437       0.437       0.092
  CSO8                 JUNCTION     0.905    0.905     0  00:45         2.5         2.5       0.003
  CSO9                 JUNCTION     0.206    0.206     0  00:45       0.626       0.626       0.042
  J1                   JUNCTION     0.557    0.557     0  00:45        1.44        1.44      -0.212
  J10                  JUNCTION     0.701    1.186     0  00:45        1.65        3.68      -0.062
  J11                  JUNCTION     0.000    0.486     0  01:06           0        2.04       0.326
  J12                  JUNCTION     0.000    1.221     0  00:45           0        5.11      15.658
  J13                  JUNCTION     0.813    0.813     0  00:45        2.08        2.08      -0.567
  J14                  JUNCTION     0.000    0.142     0  03:16           0       0.291       1.094
  J15                  JUNCTION     0.000    1.458     0  00:45           0        4.89       1.170
  J16                  JUNCTION     1.204    1.204     0  00:45        3.01        3.01      -0.089
  J17                  JUNCTION     0.000    0.069     0  02:05           0       0.156      -0.104
  J18                  JUNCTION     0.000    0.202     0  01:07           0       0.855       0.078
  J19                  JUNCTION     0.000    0.271     0  00:58           0        2.98       0.351
  J2                   JUNCTION     0.000    0.039     0  01:18           0       0.456       1.107
  J3                   JUNCTION     0.000    0.196     0  03:20           0       0.897       2.803
  J4                   JUNCTION     0.000    0.084     0  00:38           0       0.367       0.498
  J5                   JUNCTION     0.182    0.254     0  00:50       0.613       0.978      -0.077
  J6                   JUNCTION     0.000    0.039     0  03:35           0       0.163       3.106
  J7                   JUNCTION     0.000    0.127     0  01:06           0       0.541       0.433
  J8                   JUNCTION     0.779    0.906     0  00:50        2.88        3.42      -0.023
  J9                   JUNCTION     0.000    0.175     0  01:40           0        1.21       1.740
  Out_to_WWTP          OUTFALL      0.000    0.271     0  00:59           0        2.97       0.000
  T1                   STORAGE      0.000    1.415     0  00:47           0        4.84      11.341
  T2                   STORAGE      0.000    0.809     0  00:45           0        2.09      82.657
  T3                   STORAGE      0.000    1.205     0  00:46           0        4.42      44.631
  T4                   STORAGE      0.000    0.253     0  00:50           0       0.979      54.535
  T5                   STORAGE      0.000    0.555     0  00:45           0        1.44      40.586
  T6                   STORAGE      0.000    0.901     0  00:51           0        3.42      30.114
  
  
  **********************
  Node Surcharge Summary
  **********************
  
  Surcharging occurs when water rises above the top of the highest conduit.
  ---------------------------------------------------------------------
                                               Max. Height   Min. Depth
                                   Hours       Above Crown    Below Rim
  Node                 Type      Surcharged         Meters       Meters
  ---------------------------------------------------------------------
  CSO10                JUNCTION        0.64          0.560        0.000
  CSO7                 JUNCTION        0.76          0.945        0.000
  CSO8                 JUNCTION        0.77          1.547        0.000
  CSO9                 JUNCTION        0.78          1.682        0.000
  J4                   JUNCTION        0.72          0.722        0.978
  
  
  *********************
  Node Flooding Summary
  *********************
  
  Flooding refers to all water that overflows a node, whether it ponds or not.
  --------------------------------------------------------------------------
                                                             Total   Maximum
                                 Maximum   Time of Max       Flood    Ponded
                        Hours       Rate    Occurrence      Volume     Depth
  Node                 Flooded       CMS   days hr:min    10^6 ltr    Meters
  --------------------------------------------------------------------------
  CSO10                   0.55     0.184      0  00:45       0.204     0.000
  CSO7                    0.60     0.054      0  00:50       0.070     0.000
  CSO8                    0.54     0.419      0  00:45       0.462     0.000
  CSO9                    0.50     0.078      0  00:45       0.084     0.000
  T1                      0.81     0.896      0  00:58       0.950     0.000
  T5                      0.89     0.131      0  01:17       0.151     0.000
  T6                      1.20     0.607      0  01:06       0.857     0.000
  
  
  **********************
  Storage Volume Summary
  **********************
  
  --------------------------------------------------------------------------------------------------
                         Average     Avg  Evap Exfil       Maximum     Max    Time of Max    Maximum
                          Volume    Pcnt  Pcnt  Pcnt        Volume    Pcnt     Occurrence    Outflow
  Storage Unit           1000 m3    Full  Loss  Loss       1000 m3    Full    days hr:min        CMS
  --------------------------------------------------------------------------------------------------
  T1                       0.492      70     0     0         0.700     100       0  00:58      0.271
  T2                       0.688      69     0     0         0.992      99       0  02:50      0.069
  T3                       1.585      61     0     0         2.570      99       0  03:15      0.292
  T4                       0.297      59     0     0         0.483      97       0  03:35      0.039
  T5                       0.366      73     0     0         0.500     100       0  01:17      0.039
  T6                       0.445      74     0     0         0.600     100       0  01:06      0.175
  
  
  ***********************
  Outfall Loading Summary
  ***********************
  
  -----------------------------------------------------------
                         Flow       Avg       Max       Total
                         Freq      Flow      Flow      Volume
  Outfall Node           Pcnt       CMS       CMS    10^6 ltr
  -----------------------------------------------------------
  Out_to_WWTP           96.95     0.214     0.271       2.971
  -----------------------------------------------------------
  System                96.95     0.214     0.271       2.971
  
  
  ********************
  Link Flow Summary
  ********************
  
  -----------------------------------------------------------------------------
                                 Maximum  Time of Max   Maximum    Max/    Max/
                                  |Flow|   Occurrence   |Veloc|    Full    Full
  Link                 Type          CMS  days hr:min     m/sec    Flow   Depth
  -----------------------------------------------------------------------------
  C1                   CONDUIT     0.040     0  01:56      1.52    0.01    0.11
  C10                  CONDUIT     0.901     0  00:51      2.35    0.09    0.60
  C11                  CONDUIT     0.192     0  03:21      1.90    0.01    0.12
  C12                  CONDUIT     0.175     0  02:08      1.12    0.01    0.27
  C13                  CONDUIT     1.205     0  00:46      3.11    0.07    0.74
  C14                  CONDUIT     0.271     0  00:59      2.08    0.02    0.09
  C15                  CONDUIT     0.486     0  01:06      3.49    1.55    0.83
  C16                  CONDUIT     0.486     0  00:56      1.80    0.05    0.16
  C17                  CONDUIT     1.185     0  00:45      3.36    0.06    0.25
  C18                  CONDUIT     0.809     0  00:45      2.48    0.03    0.56
  C19                  CONDUIT     0.069     0  02:09      1.04    0.02    0.22
  C2                   CONDUIT     0.037     0  03:50      1.43    0.04    0.16
  C20                  CONDUIT     1.199     0  00:45      3.65    0.04    0.17
  C21                  CONDUIT     0.202     0  01:07      1.85    1.16    0.69
  C22                  CONDUIT     0.202     0  01:07      1.68    0.09    0.35
  C23                  CONDUIT     1.415     0  00:47      2.49    0.16    0.63
  C3                   CONDUIT     0.144     0  03:14      2.12    0.06    0.15
  C4                   CONDUIT     0.555     0  00:45      2.17    0.13    0.62
  C5                   CONDUIT     0.084     0  00:38      1.64    1.43    1.00
  C6                   CONDUIT     0.072     0  00:50      1.27    1.14    0.78
  C7                   CONDUIT     0.253     0  00:50      1.91    0.06    0.58
  C8                   CONDUIT     0.127     0  01:06      1.81    1.60    0.86
  C9                   CONDUIT     0.127     0  01:06      1.27    0.43    0.54
  V1                   ORIFICE     0.271     0  00:58                      1.00
  V2                   ORIFICE     0.069     0  02:05                      0.75
  V3                   ORIFICE     0.142     0  03:16                      0.75
  V4                   ORIFICE     0.039     0  03:35                      1.00
  V5                   ORIFICE     0.039     0  01:18                      1.00
  V6                   ORIFICE     0.175     0  01:40                      1.00
  
  
  ***************************
  Flow Classification Summary
  ***************************
  
  -------------------------------------------------------------------------------------
                      Adjusted    ---------- Fraction of Time in Flow Class ---------- 
                       /Actual         Up    Down  Sub   Sup   Up    Down  Norm  Inlet 
  Conduit               Length    Dry  Dry   Dry   Crit  Crit  Crit  Crit  Ltd   Ctrl  
  -------------------------------------------------------------------------------------
  C1                      1.00   0.00  0.00  0.00  0.03  0.97  0.00  0.00  0.47  0.00
  C10                     1.00   0.00  0.00  0.00  0.86  0.14  0.00  0.00  0.88  0.00
  C11                     1.00   0.00  0.00  0.00  0.72  0.28  0.00  0.00  1.00  0.00
  C12                     1.00   0.00  0.02  0.00  0.98  0.00  0.00  0.00  0.98  0.00
  C13                     1.00   0.00  0.00  0.00  0.82  0.18  0.00  0.00  0.27  0.00
  C14                     1.00   0.02  0.00  0.00  0.02  0.95  0.00  0.00  0.45  0.00
  C15                     1.00   0.05  0.00  0.00  0.00  0.95  0.00  0.00  0.01  0.00
  C16                     1.00   0.00  0.05  0.00  0.11  0.84  0.00  0.00  0.14  0.00
  C17                     1.00   0.00  0.00  0.00  0.43  0.57  0.00  0.00  0.89  0.00
  C18                     1.00   0.00  0.00  0.00  0.87  0.13  0.00  0.00  0.90  0.00
  C19                     1.00   0.00  0.00  0.00  0.94  0.05  0.00  0.00  1.00  0.00
  C2                      1.00   0.00  0.05  0.00  0.33  0.62  0.00  0.00  0.86  0.00
  C20                     1.00   0.00  0.00  0.00  0.27  0.73  0.00  0.00  0.94  0.00
  C21                     1.00   0.00  0.00  0.00  0.02  0.98  0.00  0.00  0.00  0.00
  C22                     1.00   0.00  0.00  0.00  0.56  0.44  0.00  0.00  1.00  0.00
  C23                     1.00   0.00  0.00  0.00  0.86  0.14  0.00  0.00  0.86  0.00
  C3                      1.00   0.00  0.01  0.00  0.69  0.30  0.00  0.00  0.81  0.00
  C4                      1.00   0.00  0.00  0.00  0.88  0.12  0.00  0.00  0.90  0.00
  C5                      1.00   0.00  0.00  0.00  0.87  0.13  0.00  0.00  0.69  0.00
  C6                      1.00   0.00  0.00  0.00  0.45  0.55  0.00  0.00  0.01  0.00
  C7                      1.00   0.00  0.00  0.00  0.84  0.16  0.00  0.00  0.87  0.00
  C8                      1.00   0.00  0.00  0.00  0.33  0.67  0.00  0.00  0.00  0.00
  C9                      1.00   0.00  0.00  0.00  1.00  0.00  0.00  0.00  1.00  0.00
  
  
  *************************
  Conduit Surcharge Summary
  *************************
  
  ----------------------------------------------------------------------------
                                                           Hours        Hours 
                         --------- Hours Full --------   Above Full   Capacity
  Conduit                Both Ends  Upstream  Dnstream   Normal Flow   Limited
  ----------------------------------------------------------------------------
  C10                         0.01      0.01      3.24      0.01         0.01
  C13                         0.01      0.01      2.99      0.01         0.01
  C15                         0.01      0.77      0.01      0.80         0.01
  C18                         0.01      0.01      3.16      0.01         0.01
  C21                         0.01      0.64      0.01      0.62         0.01
  C23                         0.01      0.01      3.29      0.01         0.01
  C4                          0.01      0.01      3.34      0.01         0.01
  C5                          0.72      0.76      0.83      0.76         0.69
  C6                          0.01      0.72      0.01      0.63         0.01
  C7                          0.01      0.01      3.17      0.01         0.01
  C8                          0.01      0.78      0.01      0.79         0.01
  

  Analysis begun on:  Tue Dec 21 09:11:26 2021
  Analysis ended on:  Tue Dec 21 09:11:27 2021
  Total elapsed time: 00:00:01