
  EPA STORM WATER MANAGEMENT MODEL - VERSION 5.1 (Build 5.1.015)
  --------------------------------------------------------------

  
  *********************************************************
  NOTE: The summary statistics displayed in this report are
  based on results found at every computational time step,  
  not just on results from each reporting time step.
  *********************************************************
  
  ****************
  Analysis Options
  ****************
  Flow Units ............... CMS
  Process Models:
    Rainfall/Runoff ........ YES
    RDII ................... NO
    Snowmelt ............... NO
    Groundwater ............ NO
    Flow Routing ........... YES
    Ponding Allowed ........ NO
    Water Quality .......... NO
  Infiltration Method ...... HORTON
  Flow Routing Method ...... DYNWAVE
  Surcharge Method ......... EXTRAN
  Starting Date ............ 01/01/2000 00:00:00
  Ending Date .............. 01/01/2000 04:00:00
  Antecedent Dry Days ...... 0.0
  Report Time Step ......... 00:05:00
  Wet Time Step ............ 00:05:00
  Dry Time Step ............ 00:05:00
  Routing Time Step ........ 30.00 sec
  Variable Time Step ....... YES
  Maximum Trials ........... 8
  Number of Threads ........ 1
  Head Tolerance ........... 0.001500 m
  
  
  *********************
  Control Actions Taken
  *********************
   01/01/2000: 00:00:00 Link V2 setting changed to   0.24 by Control BC
   01/01/2000: 00:00:00 Link V3 setting changed to   0.65 by Control BC
   01/01/2000: 00:00:00 Link V4 setting changed to   0.35 by Control BC
   01/01/2000: 00:00:00 Link V6 setting changed to   0.43 by Control BC

  
  **************************        Volume         Depth
  Runoff Quantity Continuity     hectare-m            mm
  **************************     ---------       -------
  Total Precipitation ......         2.006        11.130
  Evaporation Loss .........         0.000         0.000
  Infiltration Loss ........         0.000         0.000
  Surface Runoff ...........         1.966        10.912
  Final Storage ............         0.045         0.252
  Continuity Error (%) .....        -0.303
  
  
  **************************        Volume        Volume
  Flow Routing Continuity        hectare-m      10^6 ltr
  **************************     ---------     ---------
  Dry Weather Inflow .......         0.027         0.268
  Wet Weather Inflow .......         1.965        19.652
  Groundwater Inflow .......         0.000         0.000
  RDII Inflow ..............         0.000         0.000
  External Inflow ..........         0.000         0.000
  External Outflow .........         0.333         3.335
  Flooding Loss ............         0.629         6.287
  Evaporation Loss .........         0.000         0.000
  Exfiltration Loss ........         0.000         0.000
  Initial Stored Volume ....         0.000         0.000
  Final Stored Volume ......         0.762         7.618
  Continuity Error (%) .....        13.450
  
  
  *************************
  Highest Continuity Errors
  *************************
  Node T2 (35.72%)
  Node T4 (29.21%)
  Node T3 (25.49%)
  Node T5 (23.91%)
  Node T6 (18.64%)
  
  
  ***************************
  Time-Step Critical Elements
  ***************************
  Link C15 (67.99%)
  
  
  ********************************
  Highest Flow Instability Indexes
  ********************************
  Link C13 (7)
  Link C5 (2)
  Link C6 (1)
  Link C8 (1)
  Link C15 (1)
  
  
  *************************
  Routing Time Step Summary
  *************************
  Minimum Time Step           :     0.20 sec
  Average Time Step           :    21.14 sec
  Maximum Time Step           :    30.00 sec
  Percent in Steady State     :     0.00
  Average Iterations per Step :     2.74
  Percent Not Converging      :     4.70
  Time Step Frequencies       :
     30.000 - 13.228 sec      :    70.65 %
     13.228 -  5.833 sec      :    28.47 %
      5.833 -  2.572 sec      :     0.59 %
      2.572 -  1.134 sec      :     0.15 %
      1.134 -  0.500 sec      :     0.15 %
  
  
  ***************************
  Subcatchment Runoff Summary
  ***************************
  
  ------------------------------------------------------------------------------------------------------------------------------
                            Total      Total      Total      Total     Imperv       Perv      Total       Total     Peak  Runoff
                           Precip      Runon       Evap      Infil     Runoff     Runoff     Runoff      Runoff   Runoff   Coeff
  Subcatchment                 mm         mm         mm         mm         mm         mm         mm    10^6 ltr      CMS
  ------------------------------------------------------------------------------------------------------------------------------
  SC01                      11.13       0.00       0.00       0.00      11.02       0.00      11.02        3.64     1.23   0.990
  SC010                     11.13       0.00       0.00       0.00      10.95       0.00      10.95        1.29     0.42   0.984
  SC02                      11.13       0.00       0.00       0.00      11.00       0.00      11.00        2.50     0.84   0.988
  SC03                      11.13       0.00       0.00       0.00      11.06       0.00      11.06        1.99     0.69   0.994
  SC04                      11.13       0.00       0.00       0.00      10.76       0.00      10.76        0.74     0.22   0.967
  SC05                      11.13       0.00       0.00       0.00      11.00       0.00      11.00        1.72     0.58   0.988
  SC06                      11.13       0.00       0.00       0.00      10.65       0.00      10.65        3.46     0.97   0.956
  SC07                      11.13       0.00       0.00       0.00      10.76       0.00      10.76        0.51     0.15   0.967
  SC08                      11.13       0.00       0.00       0.00      10.94       0.00      10.94        3.06     1.00   0.983
  SC09                      11.13       0.00       0.00       0.00      10.88       0.00      10.88        0.75     0.24   0.977
  
  
  ******************
  Node Depth Summary
  ******************
  
  ---------------------------------------------------------------------------------
                                 Average  Maximum  Maximum  Time of Max    Reported
                                   Depth    Depth      HGL   Occurrence   Max Depth
  Node                 Type       Meters   Meters   Meters  days hr:min      Meters
  ---------------------------------------------------------------------------------
  CSO10                JUNCTION     0.40     1.00    31.00     0  00:27        1.00
  CSO7                 JUNCTION     0.43     1.20    35.20     0  00:32        1.20
  CSO8                 JUNCTION     0.74     2.00    34.00     0  00:27        2.00
  CSO9                 JUNCTION     0.69     2.00    42.00     0  00:30        2.00
  J1                   JUNCTION     0.12     0.25    34.25     0  00:50        0.25
  J10                  JUNCTION     0.17     0.33    29.33     0  00:47        0.33
  J11                  JUNCTION     0.18     0.30    31.30     0  01:08        0.30
  J12                  JUNCTION     0.35     0.53    26.53     0  02:48        0.53
  J13                  JUNCTION     0.11     0.24    29.24     0  00:50        0.24
  J14                  JUNCTION     0.12     0.15    20.15     0  03:12        0.15
  J15                  JUNCTION     0.25     0.42    15.42     0  00:51        0.42
  J16                  JUNCTION     0.12     0.27    30.27     0  00:50        0.27
  J17                  JUNCTION     0.06     0.08    20.08     0  02:12        0.08
  J18                  JUNCTION     0.10     0.16    29.16     0  01:03        0.16
  J19                  JUNCTION     0.15     0.17     8.17     0  00:50        0.17
  J2                   JUNCTION     0.07     0.08    25.08     0  01:54        0.08
  J3                   JUNCTION     0.11     0.13    18.13     0  02:37        0.13
  J4                   JUNCTION     0.29     1.09    34.09     0  00:33        0.73
  J5                   JUNCTION     0.10     0.18    32.18     0  00:55        0.18
  J6                   JUNCTION     0.06     0.07    25.07     0  02:38        0.07
  J7                   JUNCTION     0.13     0.23    39.23     0  01:07        0.23
  J8                   JUNCTION     0.18     0.34    36.34     0  00:55        0.34
  J9                   JUNCTION     0.09     0.11    29.11     0  02:20        0.11
  Out_to_WWTP          OUTFALL      0.15     0.17     6.17     0  02:59        0.17
  T1                   STORAGE      4.04     5.00    15.00     0  00:49        5.00
  T2                   STORAGE      3.74     5.00    26.00     0  01:20        5.00
  T3                   STORAGE      3.10     4.53    26.53     0  02:53        4.53
  T4                   STORAGE      3.32     5.00    32.00     0  02:02        5.00
  T5                   STORAGE      3.87     5.00    32.00     0  00:58        5.00
  T6                   STORAGE      3.90     5.00    36.00     0  00:55        5.00
  
  
  *******************
  Node Inflow Summary
  *******************
  
  -------------------------------------------------------------------------------------------------
                                  Maximum  Maximum                  Lateral       Total        Flow
                                  Lateral    Total  Time of Max      Inflow      Inflow     Balance
                                   Inflow   Inflow   Occurrence      Volume      Volume       Error
  Node                 Type           CMS      CMS  days hr:min    10^6 ltr    10^6 ltr     Percent
  -------------------------------------------------------------------------------------------------
  CSO10                JUNCTION     0.421    0.421     0  00:50         1.3         1.3       0.021
  CSO7                 JUNCTION     0.152    0.152     0  00:50       0.532       0.532       0.069
  CSO8                 JUNCTION     0.996    0.996     0  00:50        3.06        3.06       0.016
  CSO9                 JUNCTION     0.237    0.237     0  00:50       0.765       0.765       0.050
  J1                   JUNCTION     0.578    0.578     0  00:50        1.76        1.76      -0.179
  J10                  JUNCTION     0.688    1.173     0  00:45        2.02        4.34      -0.037
  J11                  JUNCTION     0.000    0.486     0  01:07           0        2.33       0.290
  J12                  JUNCTION     0.000    1.228     0  00:50           0        5.25       5.815
  J13                  JUNCTION     0.842    0.842     0  00:50        2.54        2.54      -0.434
  J14                  JUNCTION     0.000    0.118     0  02:53           0        1.36       0.511
  J15                  JUNCTION     0.000    1.566     0  00:50           0        7.16       1.133
  J16                  JUNCTION     1.229    1.229     0  00:50        3.67        3.67      -0.113
  J17                  JUNCTION     0.000    0.033     0  01:20           0       0.402       1.840
  J18                  JUNCTION     0.000    0.202     0  01:03           0       0.978       0.017
  J19                  JUNCTION     0.000    0.271     0  00:49           0        3.35       0.369
  J2                   JUNCTION     0.000    0.039     0  00:58           0       0.479       1.071
  J3                   JUNCTION     0.000    0.185     0  02:36           0        2.15       1.872
  J4                   JUNCTION     0.000    0.081     0  00:32           0       0.412       0.499
  J5                   JUNCTION     0.219    0.291     0  00:55       0.752        1.16      -0.047
  J6                   JUNCTION     0.000    0.028     0  02:03           0       0.322       1.263
  J7                   JUNCTION     0.000    0.127     0  01:07           0       0.617       0.403
  J8                   JUNCTION     0.979    1.106     0  00:55        3.53        4.15      -0.007
  J9                   JUNCTION     0.000    0.075     0  00:56           0       0.922       2.352
  Out_to_WWTP          OUTFALL      0.000    0.271     0  00:51           0        3.33       0.000
  T1                   STORAGE      0.000    1.551     0  00:51           0        7.08      12.092
  T2                   STORAGE      0.000    0.841     0  00:50           0        2.55      55.581
  T3                   STORAGE      0.000    1.225     0  00:51           0        4.96      34.215
  T4                   STORAGE      0.000    0.291     0  00:55           0        1.16      41.261
  T5                   STORAGE      0.000    0.577     0  00:50           0        1.76      31.424
  T6                   STORAGE      0.000    1.104     0  00:55           0        4.15      22.914
  
  
  **********************
  Node Surcharge Summary
  **********************
  
  Surcharging occurs when water rises above the top of the highest conduit.
  ---------------------------------------------------------------------
                                               Max. Height   Min. Depth
                                   Hours       Above Crown    Below Rim
  Node                 Type      Surcharged         Meters       Meters
  ---------------------------------------------------------------------
  CSO10                JUNCTION        0.75          0.560        0.000
  CSO7                 JUNCTION        0.82          0.945        0.000
  CSO8                 JUNCTION        0.86          1.547        0.000
  CSO9                 JUNCTION        0.86          1.682        0.000
  J4                   JUNCTION        0.79          0.789        0.911
  
  
  *********************
  Node Flooding Summary
  *********************
  
  Flooding refers to all water that overflows a node, whether it ponds or not.
  --------------------------------------------------------------------------
                                                             Total   Maximum
                                 Maximum   Time of Max       Flood    Ponded
                        Hours       Rate    Occurrence      Volume     Depth
  Node                 Flooded       CMS   days hr:min    10^6 ltr    Meters
  --------------------------------------------------------------------------
  CSO10                   0.68     0.219      0  00:50       0.318     0.000
  CSO7                    0.69     0.079      0  00:50       0.120     0.000
  CSO8                    0.67     0.509      0  00:50       0.731     0.000
  CSO9                    0.62     0.110      0  00:50       0.148     0.000
  T1                      1.91     1.281      0  00:52       2.316     0.000
  T2                      1.21     0.136      0  01:20       0.284     0.000
  T4                      0.59     0.040      0  02:02       0.037     0.000
  T5                      1.33     0.446      0  00:58       0.433     0.000
  T6                      1.93     1.027      0  00:55       1.896     0.000
  
  
  **********************
  Storage Volume Summary
  **********************
  
  --------------------------------------------------------------------------------------------------
                         Average     Avg  Evap Exfil       Maximum     Max    Time of Max    Maximum
                          Volume    Pcnt  Pcnt  Pcnt        Volume    Pcnt     Occurrence    Outflow
  Storage Unit           1000 m3    Full  Loss  Loss       1000 m3    Full    days hr:min        CMS
  --------------------------------------------------------------------------------------------------
  T1                       0.566      81     0     0         0.700     100       0  00:49      0.271
  T2                       0.748      75     0     0         1.000     100       0  01:20      0.033
  T3                       1.612      62     0     0         2.357      91       0  02:53      0.140
  T4                       0.332      66     0     0         0.500     100       0  02:02      0.028
  T5                       0.387      77     0     0         0.500     100       0  00:58      0.039
  T6                       0.468      78     0     0         0.600     100       0  00:55      0.075
  
  
  ***********************
  Outfall Loading Summary
  ***********************
  
  -----------------------------------------------------------
                         Flow       Avg       Max       Total
                         Freq      Flow      Flow      Volume
  Outfall Node           Pcnt       CMS       CMS    10^6 ltr
  -----------------------------------------------------------
  Out_to_WWTP           97.65     0.233     0.271       3.335
  -----------------------------------------------------------
  System                97.65     0.233     0.271       3.335
  
  
  ********************
  Link Flow Summary
  ********************
  
  -----------------------------------------------------------------------------
                                 Maximum  Time of Max   Maximum    Max/    Max/
                                  |Flow|   Occurrence   |Veloc|    Full    Full
  Link                 Type          CMS  days hr:min     m/sec    Flow   Depth
  -----------------------------------------------------------------------------
  C1                   CONDUIT     0.039     0  01:44      1.12    0.01    0.11
  C10                  CONDUIT     1.104     0  00:55      2.35    0.11    0.61
  C11                  CONDUIT     0.185     0  02:37      1.70    0.01    0.13
  C12                  CONDUIT     0.075     0  02:20      0.68    0.01    0.16
  C13                  CONDUIT     1.225     0  00:51      2.99    0.07    0.63
  C14                  CONDUIT     0.271     0  00:51      2.08    0.02    0.09
  C15                  CONDUIT     0.486     0  01:07      3.45    1.55    0.83
  C16                  CONDUIT     0.486     0  01:01      1.82    0.05    0.16
  C17                  CONDUIT     1.171     0  00:47      3.26    0.06    0.17
  C18                  CONDUIT     0.841     0  00:50      2.53    0.03    0.56
  C19                  CONDUIT     0.033     0  02:12      0.61    0.01    0.24
  C2                   CONDUIT     0.028     0  02:37      0.86    0.03    0.17
  C20                  CONDUIT     1.228     0  00:50      3.45    0.04    0.17
  C21                  CONDUIT     0.202     0  01:03      1.83    1.16    0.69
  C22                  CONDUIT     0.202     0  01:03      1.65    0.09    0.36
  C23                  CONDUIT     1.551     0  00:51      2.44    0.17    0.64
  C3                   CONDUIT     0.118     0  02:54      1.75    0.05    0.14
  C4                   CONDUIT     0.577     0  00:50      2.25    0.14    0.63
  C5                   CONDUIT     0.081     0  00:32      1.58    1.38    1.00
  C6                   CONDUIT     0.073     0  00:55      1.28    1.15    0.80
  C7                   CONDUIT     0.291     0  00:55      1.92    0.07    0.59
  C8                   CONDUIT     0.127     0  01:07      1.77    1.60    0.86
  C9                   CONDUIT     0.127     0  01:08      1.31    0.43    0.57
  V1                   ORIFICE     0.271     0  00:49                      1.00
  V2                   ORIFICE     0.033     0  01:20                      0.24
  V3                   ORIFICE     0.118     0  02:53                      0.65
  V4                   ORIFICE     0.028     0  02:03                      0.35
  V5                   ORIFICE     0.039     0  00:58                      1.00
  V6                   ORIFICE     0.075     0  00:56                      0.43
  
  
  ***************************
  Flow Classification Summary
  ***************************
  
  -------------------------------------------------------------------------------------
                      Adjusted    ---------- Fraction of Time in Flow Class ---------- 
                       /Actual         Up    Down  Sub   Sup   Up    Down  Norm  Inlet 
  Conduit               Length    Dry  Dry   Dry   Crit  Crit  Crit  Crit  Ltd   Ctrl  
  -------------------------------------------------------------------------------------
  C1                      1.00   0.00  0.00  0.00  0.04  0.95  0.00  0.00  0.89  0.00
  C10                     1.00   0.00  0.00  0.00  0.90  0.10  0.00  0.00  0.92  0.00
  C11                     1.00   0.00  0.00  0.00  0.47  0.53  0.00  0.00  1.00  0.00
  C12                     1.00   0.00  0.00  0.00  1.00  0.00  0.00  0.00  1.00  0.00
  C13                     1.00   0.00  0.00  0.00  0.85  0.14  0.00  0.00  0.29  0.00
  C14                     1.00   0.01  0.00  0.00  0.02  0.97  0.00  0.00  0.26  0.00
  C15                     1.00   0.02  0.00  0.00  0.00  0.98  0.00  0.00  0.00  0.00
  C16                     1.00   0.00  0.02  0.00  0.07  0.91  0.00  0.00  0.18  0.00
  C17                     1.00   0.00  0.00  0.00  0.42  0.58  0.00  0.00  0.91  0.00
  C18                     1.00   0.00  0.00  0.00  0.91  0.09  0.00  0.00  0.94  0.00
  C19                     1.00   0.00  0.00  0.00  1.00  0.00  0.00  0.00  1.00  0.00
  C2                      1.00   0.00  0.00  0.00  0.45  0.54  0.00  0.00  0.95  0.00
  C20                     1.00   0.00  0.00  0.00  0.33  0.67  0.00  0.00  0.95  0.00
  C21                     1.00   0.00  0.00  0.00  0.02  0.98  0.00  0.00  0.00  0.00
  C22                     1.00   0.00  0.00  0.00  0.74  0.26  0.00  0.00  1.00  0.00
  C23                     1.00   0.00  0.00  0.00  0.90  0.10  0.00  0.00  0.91  0.00
  C3                      1.00   0.00  0.01  0.00  0.05  0.93  0.00  0.00  0.07  0.00
  C4                      1.00   0.00  0.00  0.00  0.92  0.08  0.00  0.00  0.94  0.00
  C5                      1.00   0.00  0.00  0.00  0.90  0.10  0.00  0.00  0.67  0.00
  C6                      1.00   0.00  0.00  0.00  0.43  0.57  0.00  0.00  0.01  0.00
  C7                      1.00   0.00  0.00  0.00  0.89  0.11  0.00  0.00  0.92  0.00
  C8                      1.00   0.00  0.00  0.00  0.36  0.64  0.00  0.00  0.00  0.00
  C9                      1.00   0.00  0.00  0.00  1.00  0.00  0.00  0.00  1.00  0.00
  
  
  *************************
  Conduit Surcharge Summary
  *************************
  
  ----------------------------------------------------------------------------
                                                           Hours        Hours 
                         --------- Hours Full --------   Above Full   Capacity
  Conduit                Both Ends  Upstream  Dnstream   Normal Flow   Limited
  ----------------------------------------------------------------------------
  C10                         0.01      0.01      3.37      0.01         0.01
  C13                         0.01      0.01      3.13      0.01         0.01
  C15                         0.01      0.86      0.01      0.89         0.01
  C18                         0.01      0.01      3.27      0.01         0.01
  C21                         0.01      0.75      0.01      0.74         0.01
  C23                         0.01      0.01      3.43      0.01         0.01
  C4                          0.01      0.01      3.48      0.01         0.01
  C5                          0.79      0.82      0.89      0.85         0.78
  C6                          0.01      0.78      0.01      0.72         0.01
  C7                          0.01      0.01      3.31      0.01         0.01
  C8                          0.01      0.86      0.01      0.88         0.01
  

  Analysis begun on:  Tue Dec 21 09:11:21 2021
  Analysis ended on:  Tue Dec 21 09:11:21 2021
  Total elapsed time: < 1 sec