
  EPA STORM WATER MANAGEMENT MODEL - VERSION 5.1 (Build 5.1.015)
  --------------------------------------------------------------

  
  *********************************************************
  NOTE: The summary statistics displayed in this report are
  based on results found at every computational time step,  
  not just on results from each reporting time step.
  *********************************************************
  
  ****************
  Analysis Options
  ****************
  Flow Units ............... CMS
  Process Models:
    Rainfall/Runoff ........ YES
    RDII ................... NO
    Snowmelt ............... NO
    Groundwater ............ NO
    Flow Routing ........... YES
    Ponding Allowed ........ NO
    Water Quality .......... NO
  Infiltration Method ...... HORTON
  Flow Routing Method ...... DYNWAVE
  Surcharge Method ......... EXTRAN
  Starting Date ............ 01/01/2000 00:00:00
  Ending Date .............. 01/01/2000 04:00:00
  Antecedent Dry Days ...... 0.0
  Report Time Step ......... 00:05:00
  Wet Time Step ............ 00:05:00
  Dry Time Step ............ 00:05:00
  Routing Time Step ........ 30.00 sec
  Variable Time Step ....... YES
  Maximum Trials ........... 8
  Number of Threads ........ 1
  Head Tolerance ........... 0.001500 m
  
  
  *********************
  Control Actions Taken
  *********************
   01/01/2000: 00:00:00 Link V2 setting changed to   0.24 by Control BC
   01/01/2000: 00:00:00 Link V3 setting changed to   0.65 by Control BC
   01/01/2000: 00:00:00 Link V4 setting changed to   0.35 by Control BC
   01/01/2000: 00:00:00 Link V6 setting changed to   0.43 by Control BC

  
  **************************        Volume         Depth
  Runoff Quantity Continuity     hectare-m            mm
  **************************     ---------       -------
  Total Precipitation ......         1.878        10.423
  Evaporation Loss .........         0.000         0.000
  Infiltration Loss ........         0.000         0.000
  Surface Runoff ...........         1.841        10.217
  Final Storage ............         0.044         0.243
  Continuity Error (%) .....        -0.364
  
  
  **************************        Volume        Volume
  Flow Routing Continuity        hectare-m      10^6 ltr
  **************************     ---------     ---------
  Dry Weather Inflow .......         0.027         0.268
  Wet Weather Inflow .......         1.840        18.402
  Groundwater Inflow .......         0.000         0.000
  RDII Inflow ..............         0.000         0.000
  External Inflow ..........         0.000         0.000
  External Outflow .........         0.331         3.313
  Flooding Loss ............         0.540         5.404
  Evaporation Loss .........         0.000         0.000
  Exfiltration Loss ........         0.000         0.000
  Initial Stored Volume ....         0.000         0.000
  Final Stored Volume ......         0.735         7.350
  Continuity Error (%) .....        13.939
  
  
  *************************
  Highest Continuity Errors
  *************************
  Node T2 (37.92%)
  Node T4 (30.11%)
  Node T3 (25.54%)
  Node T5 (25.25%)
  Node T6 (19.65%)
  
  
  ***************************
  Time-Step Critical Elements
  ***************************
  Link C15 (64.51%)
  
  
  ********************************
  Highest Flow Instability Indexes
  ********************************
  Link C13 (7)
  Link C5 (2)
  Link C21 (1)
  Link C8 (1)
  
  
  *************************
  Routing Time Step Summary
  *************************
  Minimum Time Step           :     0.31 sec
  Average Time Step           :    21.65 sec
  Maximum Time Step           :    30.00 sec
  Percent in Steady State     :     0.00
  Average Iterations per Step :     2.80
  Percent Not Converging      :     4.81
  Time Step Frequencies       :
     30.000 - 13.228 sec      :    73.45 %
     13.228 -  5.833 sec      :    25.19 %
      5.833 -  2.572 sec      :     1.06 %
      2.572 -  1.134 sec      :     0.30 %
      1.134 -  0.500 sec      :     0.00 %
  
  
  ***************************
  Subcatchment Runoff Summary
  ***************************
  
  ------------------------------------------------------------------------------------------------------------------------------
                            Total      Total      Total      Total     Imperv       Perv      Total       Total     Peak  Runoff
                           Precip      Runon       Evap      Infil     Runoff     Runoff     Runoff      Runoff   Runoff   Coeff
  Subcatchment                 mm         mm         mm         mm         mm         mm         mm    10^6 ltr      CMS
  ------------------------------------------------------------------------------------------------------------------------------
  SC01                      10.42       0.00       0.00       0.00      10.32       0.00      10.32        3.40     1.43   0.990
  SC010                     10.42       0.00       0.00       0.00      10.25       0.00      10.25        1.20     0.47   0.984
  SC02                      10.42       0.00       0.00       0.00      10.30       0.00      10.30        2.34     0.97   0.989
  SC03                      10.42       0.00       0.00       0.00      10.36       0.00      10.36        1.87     0.82   0.994
  SC04                      10.42       0.00       0.00       0.00      10.07       0.00      10.07        0.69     0.23   0.966
  SC05                      10.42       0.00       0.00       0.00      10.30       0.00      10.30        1.61     0.66   0.988
  SC06                      10.42       0.00       0.00       0.00       9.96       0.00       9.96        3.24     0.98   0.956
  SC07                      10.42       0.00       0.00       0.00      10.07       0.00      10.07        0.48     0.16   0.966
  SC08                      10.42       0.00       0.00       0.00      10.24       0.00      10.24        2.87     1.10   0.983
  SC09                      10.42       0.00       0.00       0.00      10.18       0.00      10.18        0.70     0.25   0.977
  
  
  ******************
  Node Depth Summary
  ******************
  
  ---------------------------------------------------------------------------------
                                 Average  Maximum  Maximum  Time of Max    Reported
                                   Depth    Depth      HGL   Occurrence   Max Depth
  Node                 Type       Meters   Meters   Meters  days hr:min      Meters
  ---------------------------------------------------------------------------------
  CSO10                JUNCTION     0.38     1.00    31.00     0  00:26        1.00
  CSO7                 JUNCTION     0.43     1.20    35.20     0  00:30        1.20
  CSO8                 JUNCTION     0.69     2.00    34.00     0  00:26        2.00
  CSO9                 JUNCTION     0.65     2.00    42.00     0  00:28        2.00
  J1                   JUNCTION     0.11     0.27    34.27     0  00:40        0.27
  J10                  JUNCTION     0.16     0.34    29.34     0  00:40        0.34
  J11                  JUNCTION     0.17     0.30    31.30     0  01:02        0.30
  J12                  JUNCTION     0.28     0.38    26.38     0  00:42        0.37
  J13                  JUNCTION     0.11     0.26    29.26     0  00:40        0.26
  J14                  JUNCTION     0.12     0.15    20.15     0  02:58        0.15
  J15                  JUNCTION     0.24     0.44    15.44     0  00:43        0.43
  J16                  JUNCTION     0.12     0.29    30.29     0  00:40        0.29
  J17                  JUNCTION     0.06     0.08    20.08     0  02:25        0.08
  J18                  JUNCTION     0.09     0.16    29.16     0  01:01        0.16
  J19                  JUNCTION     0.15     0.17     8.17     0  00:48        0.17
  J2                   JUNCTION     0.07     0.08    25.08     0  01:56        0.08
  J3                   JUNCTION     0.11     0.13    18.13     0  02:31        0.13
  J4                   JUNCTION     0.28     1.07    34.07     0  00:32        0.75
  J5                   JUNCTION     0.10     0.18    32.18     0  00:45        0.18
  J6                   JUNCTION     0.06     0.07    25.07     0  02:34        0.07
  J7                   JUNCTION     0.13     0.23    39.23     0  01:01        0.23
  J8                   JUNCTION     0.17     0.34    36.34     0  00:45        0.34
  J9                   JUNCTION     0.09     0.11    29.11     0  02:15        0.11
  Out_to_WWTP          OUTFALL      0.15     0.17     6.17     0  02:51        0.17
  T1                   STORAGE      4.05     5.00    15.00     0  00:47        5.00
  T2                   STORAGE      3.73     5.00    26.00     0  01:36        5.00
  T3                   STORAGE      2.99     4.37    26.37     0  02:48        4.36
  T4                   STORAGE      3.22     4.87    31.87     0  02:33        4.87
  T5                   STORAGE      3.90     5.00    32.00     0  00:58        5.00
  T6                   STORAGE      3.92     5.00    36.00     0  00:54        5.00
  
  
  *******************
  Node Inflow Summary
  *******************
  
  -------------------------------------------------------------------------------------------------
                                  Maximum  Maximum                  Lateral       Total        Flow
                                  Lateral    Total  Time of Max      Inflow      Inflow     Balance
                                   Inflow   Inflow   Occurrence      Volume      Volume       Error
  Node                 Type           CMS      CMS  days hr:min    10^6 ltr    10^6 ltr     Percent
  -------------------------------------------------------------------------------------------------
  CSO10                JUNCTION     0.466    0.466     0  00:40        1.21        1.21      -0.008
  CSO7                 JUNCTION     0.157    0.157     0  00:45         0.5         0.5       0.089
  CSO8                 JUNCTION     1.095    1.095     0  00:40        2.87        2.87       0.006
  CSO9                 JUNCTION     0.251    0.251     0  00:40       0.717       0.717       0.045
  J1                   JUNCTION     0.663    0.663     0  00:40        1.65        1.65      -0.179
  J10                  JUNCTION     0.823    1.309     0  00:40        1.89        4.05      -0.005
  J11                  JUNCTION     0.000    0.487     0  01:01           0        2.16       0.303
  J12                  JUNCTION     0.000    1.337     0  00:40           0        4.94       3.114
  J13                  JUNCTION     0.968    0.968     0  00:40        2.38        2.38      -0.495
  J14                  JUNCTION     0.000    0.115     0  02:48           0        1.33       0.517
  J15                  JUNCTION     0.000    1.717     0  00:40           0        6.81       1.173
  J16                  JUNCTION     1.429    1.429     0  00:40        3.44        3.44      -0.110
  J17                  JUNCTION     0.000    0.033     0  01:36           0         0.4       1.846
  J18                  JUNCTION     0.000    0.202     0  01:01           0       0.907       0.015
  J19                  JUNCTION     0.000    0.271     0  00:47           0        3.33       0.369
  J2                   JUNCTION     0.000    0.039     0  00:58           0       0.477       1.068
  J3                   JUNCTION     0.000    0.182     0  02:30           0        2.11       1.890
  J4                   JUNCTION     0.000    0.085     0  00:30           0        0.39       0.514
  J5                   JUNCTION     0.227    0.299     0  00:45       0.704        1.09      -0.068
  J6                   JUNCTION     0.000    0.028     0  02:33           0       0.316       1.272
  J7                   JUNCTION     0.000    0.127     0  01:01           0       0.576       0.414
  J8                   JUNCTION     0.982    1.109     0  00:45        3.31        3.88      -0.024
  J9                   JUNCTION     0.000    0.075     0  00:54           0       0.919       2.356
  Out_to_WWTP          OUTFALL      0.000    0.271     0  00:48           0        3.31       0.000
  T1                   STORAGE      0.000    1.673     0  00:43           0        6.74      12.628
  T2                   STORAGE      0.000    0.964     0  00:40           0        2.39      61.084
  T3                   STORAGE      0.000    1.324     0  00:42           0         4.8      34.299
  T4                   STORAGE      0.000    0.299     0  00:45           0        1.09      43.092
  T5                   STORAGE      0.000    0.661     0  00:40           0        1.65      33.777
  T6                   STORAGE      0.000    1.103     0  00:45           0        3.88      24.463
  
  
  **********************
  Node Surcharge Summary
  **********************
  
  Surcharging occurs when water rises above the top of the highest conduit.
  ---------------------------------------------------------------------
                                               Max. Height   Min. Depth
                                   Hours       Above Crown    Below Rim
  Node                 Type      Surcharged         Meters       Meters
  ---------------------------------------------------------------------
  CSO10                JUNCTION        0.69          0.560        0.000
  CSO7                 JUNCTION        0.83          0.945        0.000
  CSO8                 JUNCTION        0.83          1.547        0.000
  CSO9                 JUNCTION        0.84          1.682        0.000
  J4                   JUNCTION        0.79          0.766        0.934
  
  
  *********************
  Node Flooding Summary
  *********************
  
  Flooding refers to all water that overflows a node, whether it ponds or not.
  --------------------------------------------------------------------------
                                                             Total   Maximum
                                 Maximum   Time of Max       Flood    Ponded
                        Hours       Rate    Occurrence      Volume     Depth
  Node                 Flooded       CMS   days hr:min    10^6 ltr    Meters
  --------------------------------------------------------------------------
  CSO10                   0.59     0.263      0  00:40       0.307     0.000
  CSO7                    0.67     0.084      0  00:45       0.109     0.000
  CSO8                    0.59     0.608      0  00:40       0.705     0.000
  CSO9                    0.56     0.124      0  00:40       0.141     0.000
  T1                      1.83     1.332      0  00:47       2.014     0.000
  T2                      0.86     0.082      0  01:36       0.137     0.000
  T5                      1.26     0.271      0  00:58       0.334     0.000
  T6                      1.86     0.858      0  00:54       1.652     0.000
  
  
  **********************
  Storage Volume Summary
  **********************
  
  --------------------------------------------------------------------------------------------------
                         Average     Avg  Evap Exfil       Maximum     Max    Time of Max    Maximum
                          Volume    Pcnt  Pcnt  Pcnt        Volume    Pcnt     Occurrence    Outflow
  Storage Unit           1000 m3    Full  Loss  Loss       1000 m3    Full    days hr:min        CMS
  --------------------------------------------------------------------------------------------------
  T1                       0.567      81     0     0         0.700     100       0  00:47      0.271
  T2                       0.745      75     0     0         1.000     100       0  01:36      0.033
  T3                       1.553      60     0     0         2.272      87       0  02:48      0.121
  T4                       0.322      64     0     0         0.487      97       0  02:33      0.028
  T5                       0.390      78     0     0         0.500     100       0  00:58      0.039
  T6                       0.471      78     0     0         0.600     100       0  00:54      0.075
  
  
  ***********************
  Outfall Loading Summary
  ***********************
  
  -----------------------------------------------------------
                         Flow       Avg       Max       Total
                         Freq      Flow      Flow      Volume
  Outfall Node           Pcnt       CMS       CMS    10^6 ltr
  -----------------------------------------------------------
  Out_to_WWTP           97.29     0.233     0.271       3.313
  -----------------------------------------------------------
  System                97.29     0.233     0.271       3.313
  
  
  ********************
  Link Flow Summary
  ********************
  
  -----------------------------------------------------------------------------
                                 Maximum  Time of Max   Maximum    Max/    Max/
                                  |Flow|   Occurrence   |Veloc|    Full    Full
  Link                 Type          CMS  days hr:min     m/sec    Flow   Depth
  -----------------------------------------------------------------------------
  C1                   CONDUIT     0.039     0  01:43      1.09    0.01    0.11
  C10                  CONDUIT     1.103     0  00:45      2.35    0.11    0.61
  C11                  CONDUIT     0.182     0  02:32      1.70    0.01    0.13
  C12                  CONDUIT     0.075     0  02:15      0.72    0.01    0.12
  C13                  CONDUIT     1.324     0  00:42      3.09    0.08    0.59
  C14                  CONDUIT     0.271     0  00:48      2.08    0.02    0.09
  C15                  CONDUIT     0.487     0  01:01      3.50    1.55    0.83
  C16                  CONDUIT     0.486     0  00:52      1.81    0.05    0.16
  C17                  CONDUIT     1.301     0  00:40      3.39    0.06    0.18
  C18                  CONDUIT     0.964     0  00:40      2.37    0.04    0.56
  C19                  CONDUIT     0.033     0  02:25      0.62    0.01    0.25
  C2                   CONDUIT     0.028     0  02:35      0.85    0.03    0.17
  C20                  CONDUIT     1.423     0  00:40      3.71    0.04    0.18
  C21                  CONDUIT     0.202     0  01:01      1.85    1.16    0.69
  C22                  CONDUIT     0.202     0  01:02      1.68    0.09    0.38
  C23                  CONDUIT     1.673     0  00:43      2.43    0.18    0.65
  C3                   CONDUIT     0.115     0  02:49      1.74    0.04    0.14
  C4                   CONDUIT     0.661     0  00:40      2.10    0.16    0.64
  C5                   CONDUIT     0.085     0  00:30      1.66    1.45    1.00
  C6                   CONDUIT     0.073     0  00:45      1.28    1.16    0.81
  C7                   CONDUIT     0.299     0  00:45      1.89    0.07    0.59
  C8                   CONDUIT     0.127     0  01:01      1.82    1.60    0.86
  C9                   CONDUIT     0.127     0  01:01      1.25    0.43    0.57
  V1                   ORIFICE     0.271     0  00:47                      1.00
  V2                   ORIFICE     0.033     0  01:36                      0.24
  V3                   ORIFICE     0.115     0  02:48                      0.65
  V4                   ORIFICE     0.028     0  02:33                      0.35
  V5                   ORIFICE     0.039     0  00:58                      1.00
  V6                   ORIFICE     0.075     0  00:54                      0.43
  
  
  ***************************
  Flow Classification Summary
  ***************************
  
  -------------------------------------------------------------------------------------
                      Adjusted    ---------- Fraction of Time in Flow Class ---------- 
                       /Actual         Up    Down  Sub   Sup   Up    Down  Norm  Inlet 
  Conduit               Length    Dry  Dry   Dry   Crit  Crit  Crit  Crit  Ltd   Ctrl  
  -------------------------------------------------------------------------------------
  C1                      1.00   0.00  0.00  0.00  0.01  0.99  0.00  0.00  0.87  0.00
  C10                     1.00   0.00  0.00  0.00  0.89  0.11  0.00  0.00  0.91  0.00
  C11                     1.00   0.00  0.00  0.00  0.48  0.51  0.00  0.00  1.00  0.00
  C12                     1.00   0.00  0.00  0.00  1.00  0.00  0.00  0.00  1.00  0.00
  C13                     1.00   0.00  0.00  0.00  0.84  0.16  0.00  0.00  0.32  0.00
  C14                     1.00   0.01  0.00  0.00  0.02  0.97  0.00  0.00  0.28  0.00
  C15                     1.00   0.02  0.00  0.00  0.00  0.98  0.00  0.00  0.01  0.00
  C16                     1.00   0.00  0.02  0.00  0.10  0.88  0.00  0.00  0.17  0.00
  C17                     1.00   0.00  0.00  0.00  0.37  0.63  0.00  0.00  0.88  0.00
  C18                     1.00   0.00  0.00  0.00  0.90  0.10  0.00  0.00  0.92  0.00
  C19                     1.00   0.00  0.00  0.00  1.00  0.00  0.00  0.00  1.00  0.00
  C2                      1.00   0.00  0.00  0.00  0.48  0.52  0.00  0.00  0.95  0.00
  C20                     1.00   0.00  0.00  0.00  0.35  0.65  0.00  0.00  0.94  0.00
  C21                     1.00   0.00  0.00  0.00  0.02  0.98  0.00  0.00  0.00  0.00
  C22                     1.00   0.00  0.00  0.00  0.71  0.29  0.00  0.00  1.00  0.00
  C23                     1.00   0.00  0.00  0.00  0.88  0.11  0.00  0.00  0.90  0.00
  C3                      1.00   0.00  0.01  0.00  0.06  0.92  0.00  0.00  0.08  0.00
  C4                      1.00   0.00  0.00  0.00  0.90  0.10  0.00  0.00  0.93  0.00
  C5                      1.00   0.00  0.00  0.00  0.89  0.11  0.00  0.00  0.67  0.00
  C6                      1.00   0.00  0.00  0.00  0.47  0.52  0.00  0.00  0.01  0.00
  C7                      1.00   0.00  0.00  0.00  0.87  0.13  0.00  0.00  0.90  0.00
  C8                      1.00   0.00  0.00  0.00  0.35  0.65  0.00  0.00  0.00  0.00
  C9                      1.00   0.00  0.00  0.00  1.00  0.00  0.00  0.00  1.00  0.00
  
  
  *************************
  Conduit Surcharge Summary
  *************************
  
  ----------------------------------------------------------------------------
                                                           Hours        Hours 
                         --------- Hours Full --------   Above Full   Capacity
  Conduit                Both Ends  Upstream  Dnstream   Normal Flow   Limited
  ----------------------------------------------------------------------------
  C10                         0.01      0.01      3.37      0.01         0.01
  C13                         0.01      0.01      3.14      0.01         0.01
  C15                         0.01      0.83      0.01      0.85         0.01
  C18                         0.01      0.01      3.31      0.01         0.01
  C21                         0.01      0.69      0.01      0.66         0.01
  C23                         0.01      0.01      3.42      0.01         0.01
  C4                          0.01      0.01      3.47      0.01         0.01
  C5                          0.79      0.83      0.90      0.84         0.77
  C6                          0.01      0.79      0.01      0.71         0.01
  C7                          0.01      0.01      3.33      0.01         0.01
  C8                          0.01      0.84      0.01      0.85         0.01
  

  Analysis begun on:  Tue Dec 21 09:11:18 2021
  Analysis ended on:  Tue Dec 21 09:11:18 2021
  Total elapsed time: < 1 sec