
  EPA STORM WATER MANAGEMENT MODEL - VERSION 5.1 (Build 5.1.015)
  --------------------------------------------------------------

  
  *********************************************************
  NOTE: The summary statistics displayed in this report are
  based on results found at every computational time step,  
  not just on results from each reporting time step.
  *********************************************************
  
  ****************
  Analysis Options
  ****************
  Flow Units ............... CMS
  Process Models:
    Rainfall/Runoff ........ YES
    RDII ................... NO
    Snowmelt ............... NO
    Groundwater ............ NO
    Flow Routing ........... YES
    Ponding Allowed ........ NO
    Water Quality .......... NO
  Infiltration Method ...... HORTON
  Flow Routing Method ...... DYNWAVE
  Surcharge Method ......... EXTRAN
  Starting Date ............ 01/01/2000 00:00:00
  Ending Date .............. 01/01/2000 04:00:00
  Antecedent Dry Days ...... 0.0
  Report Time Step ......... 00:05:00
  Wet Time Step ............ 00:05:00
  Dry Time Step ............ 00:05:00
  Routing Time Step ........ 30.00 sec
  Variable Time Step ....... YES
  Maximum Trials ........... 8
  Number of Threads ........ 1
  Head Tolerance ........... 0.001500 m
  
  
  *********************
  Control Actions Taken
  *********************
   01/01/2000: 00:00:00 Link V2 setting changed to   0.24 by Control BC
   01/01/2000: 00:00:00 Link V3 setting changed to   0.65 by Control BC
   01/01/2000: 00:00:00 Link V4 setting changed to   0.35 by Control BC
   01/01/2000: 00:00:00 Link V6 setting changed to   0.43 by Control BC

  
  **************************        Volume         Depth
  Runoff Quantity Continuity     hectare-m            mm
  **************************     ---------       -------
  Total Precipitation ......         1.378         7.644
  Evaporation Loss .........         0.000         0.000
  Infiltration Loss ........         0.000         0.000
  Surface Runoff ...........         1.340         7.438
  Final Storage ............         0.041         0.230
  Continuity Error (%) .....        -0.302
  
  
  **************************        Volume        Volume
  Flow Routing Continuity        hectare-m      10^6 ltr
  **************************     ---------     ---------
  Dry Weather Inflow .......         0.027         0.268
  Wet Weather Inflow .......         1.339        13.395
  Groundwater Inflow .......         0.000         0.000
  RDII Inflow ..............         0.000         0.000
  External Inflow ..........         0.000         0.000
  External Outflow .........         0.325         3.249
  Flooding Loss ............         0.192         1.918
  Evaporation Loss .........         0.000         0.000
  Exfiltration Loss ........         0.000         0.000
  Initial Stored Volume ....         0.000         0.000
  Final Stored Volume ......         0.644         6.436
  Continuity Error (%) .....        15.077
  
  
  *************************
  Highest Continuity Errors
  *************************
  Node T2 (39.77%)
  Node T5 (31.66%)
  Node T4 (29.02%)
  Node T6 (26.05%)
  Node T3 (25.25%)
  
  
  ***************************
  Time-Step Critical Elements
  ***************************
  Link C15 (61.49%)
  
  
  ********************************
  Highest Flow Instability Indexes
  ********************************
  Link C5 (4)
  Link C6 (3)
  Link C8 (2)
  Link C21 (1)
  
  
  *************************
  Routing Time Step Summary
  *************************
  Minimum Time Step           :     1.26 sec
  Average Time Step           :    22.36 sec
  Maximum Time Step           :    30.00 sec
  Percent in Steady State     :     0.00
  Average Iterations per Step :     2.97
  Percent Not Converging      :     5.43
  Time Step Frequencies       :
     30.000 - 13.228 sec      :    78.54 %
     13.228 -  5.833 sec      :    20.53 %
      5.833 -  2.572 sec      :     0.31 %
      2.572 -  1.134 sec      :     0.62 %
      1.134 -  0.500 sec      :     0.00 %
  
  
  ***************************
  Subcatchment Runoff Summary
  ***************************
  
  ------------------------------------------------------------------------------------------------------------------------------
                            Total      Total      Total      Total     Imperv       Perv      Total       Total     Peak  Runoff
                           Precip      Runon       Evap      Infil     Runoff     Runoff     Runoff      Runoff   Runoff   Coeff
  Subcatchment                 mm         mm         mm         mm         mm         mm         mm    10^6 ltr      CMS
  ------------------------------------------------------------------------------------------------------------------------------
  SC01                       7.64       0.00       0.00       0.00       7.53       0.00       7.53        2.48     0.81   0.985
  SC010                      7.64       0.00       0.00       0.00       7.47       0.00       7.47        0.88     0.27   0.977
  SC02                       7.64       0.00       0.00       0.00       7.52       0.00       7.52        1.71     0.55   0.983
  SC03                       7.64       0.00       0.00       0.00       7.57       0.00       7.57        1.36     0.47   0.990
  SC04                       7.64       0.00       0.00       0.00       7.30       0.00       7.30        0.50     0.13   0.955
  SC05                       7.64       0.00       0.00       0.00       7.52       0.00       7.52        1.17     0.38   0.983
  SC06                       7.64       0.00       0.00       0.00       7.20       0.00       7.20        2.34     0.57   0.942
  SC07                       7.64       0.00       0.00       0.00       7.31       0.00       7.31        0.35     0.09   0.956
  SC08                       7.64       0.00       0.00       0.00       7.46       0.00       7.46        2.09     0.62   0.976
  SC09                       7.64       0.00       0.00       0.00       7.41       0.00       7.41        0.51     0.15   0.969
  
  
  ******************
  Node Depth Summary
  ******************
  
  ---------------------------------------------------------------------------------
                                 Average  Maximum  Maximum  Time of Max    Reported
                                   Depth    Depth      HGL   Occurrence   Max Depth
  Node                 Type       Meters   Meters   Meters  days hr:min      Meters
  ---------------------------------------------------------------------------------
  CSO10                JUNCTION     0.34     1.00    31.00     0  00:29        1.00
  CSO7                 JUNCTION     0.35     1.20    35.20     0  00:36        1.20
  CSO8                 JUNCTION     0.62     2.00    34.00     0  00:30        2.00
  CSO9                 JUNCTION     0.55     2.00    42.00     0  00:34        2.00
  J1                   JUNCTION     0.10     0.20    34.20     0  00:40        0.20
  J10                  JUNCTION     0.15     0.30    29.30     0  00:38        0.30
  J11                  JUNCTION     0.16     0.30    31.30     0  00:57        0.30
  J12                  JUNCTION     0.19     0.33    26.33     0  00:42        0.32
  J13                  JUNCTION     0.10     0.20    29.20     0  00:40        0.20
  J14                  JUNCTION     0.11     0.14    20.14     0  03:04        0.14
  J15                  JUNCTION     0.22     0.35    15.35     0  00:45        0.35
  J16                  JUNCTION     0.10     0.22    30.22     0  00:40        0.22
  J17                  JUNCTION     0.06     0.07    20.07     0  02:26        0.07
  J18                  JUNCTION     0.09     0.16    29.16     0  00:57        0.16
  J19                  JUNCTION     0.15     0.17     8.17     0  00:58        0.17
  J2                   JUNCTION     0.07     0.08    25.08     0  02:05        0.08
  J3                   JUNCTION     0.10     0.13    18.13     0  02:37        0.13
  J4                   JUNCTION     0.25     1.07    34.07     0  00:36        0.74
  J5                   JUNCTION     0.09     0.15    32.15     0  00:46        0.15
  J6                   JUNCTION     0.06     0.07    25.07     0  02:31        0.07
  J7                   JUNCTION     0.12     0.23    39.23     0  00:55        0.23
  J8                   JUNCTION     0.15     0.27    36.27     0  00:50        0.27
  J9                   JUNCTION     0.09     0.11    29.11     0  02:22        0.11
  Out_to_WWTP          OUTFALL      0.15     0.17     6.17     0  02:32        0.17
  T1                   STORAGE      3.83     5.00    15.00     0  00:57        5.00
  T2                   STORAGE      2.71     3.80    24.80     0  02:24        3.80
  T3                   STORAGE      2.49     3.75    25.75     0  02:57        3.75
  T4                   STORAGE      2.40     3.67    30.67     0  02:30        3.67
  T5                   STORAGE      3.31     4.64    31.64     0  02:04        4.64
  T6                   STORAGE      3.66     5.00    36.00     0  01:09        5.00
  
  
  *******************
  Node Inflow Summary
  *******************
  
  -------------------------------------------------------------------------------------------------
                                  Maximum  Maximum                  Lateral       Total        Flow
                                  Lateral    Total  Time of Max      Inflow      Inflow     Balance
                                   Inflow   Inflow   Occurrence      Volume      Volume       Error
  Node                 Type           CMS      CMS  days hr:min    10^6 ltr    10^6 ltr     Percent
  -------------------------------------------------------------------------------------------------
  CSO10                JUNCTION     0.266    0.266     0  00:40       0.887       0.887       0.027
  CSO7                 JUNCTION     0.092    0.092     0  00:45       0.368       0.368       0.102
  CSO8                 JUNCTION     0.624    0.624     0  00:40        2.09        2.09       0.013
  CSO9                 JUNCTION     0.146    0.146     0  00:45       0.525       0.525       0.060
  J1                   JUNCTION     0.378    0.378     0  00:40        1.21        1.21      -0.258
  J10                  JUNCTION     0.469    0.954     0  00:35        1.39        3.33       0.020
  J11                  JUNCTION     0.000    0.486     0  00:57           0        1.95       0.308
  J12                  JUNCTION     0.000    0.983     0  00:40           0        4.21       0.172
  J13                  JUNCTION     0.551    0.551     0  00:40        1.74        1.74      -0.624
  J14                  JUNCTION     0.000    0.107     0  02:57           0        1.22       0.529
  J15                  JUNCTION     0.000    1.097     0  00:40           0        5.58       1.348
  J16                  JUNCTION     0.812    0.812     0  00:40        2.52        2.52      -0.149
  J17                  JUNCTION     0.000    0.029     0  02:24           0       0.345       1.899
  J18                  JUNCTION     0.000    0.202     0  00:57           0        0.82       0.014
  J19                  JUNCTION     0.000    0.271     0  00:57           0        3.26       0.367
  J2                   JUNCTION     0.000    0.038     0  02:04           0       0.447       1.105
  J3                   JUNCTION     0.000    0.168     0  02:34           0        1.93       1.937
  J4                   JUNCTION     0.000    0.079     0  00:36           0       0.345       0.566
  J5                   JUNCTION     0.132    0.203     0  00:45       0.513       0.856      -0.079
  J6                   JUNCTION     0.000    0.024     0  02:30           0       0.274       1.316
  J7                   JUNCTION     0.000    0.127     0  00:55           0        0.51       0.444
  J8                   JUNCTION     0.573    0.700     0  00:50        2.41        2.92      -0.029
  J9                   JUNCTION     0.000    0.075     0  01:09           0         0.9       2.378
  Out_to_WWTP          OUTFALL      0.000    0.271     0  00:59           0        3.25       0.000
  T1                   STORAGE      0.000    1.084     0  00:45           0        5.51      14.698
  T2                   STORAGE      0.000    0.550     0  00:40           0        1.75      66.029
  T3                   STORAGE      0.000    0.978     0  00:42           0         4.2      33.774
  T4                   STORAGE      0.000    0.203     0  00:46           0       0.857      40.890
  T5                   STORAGE      0.000    0.377     0  00:40           0        1.22      46.323
  T6                   STORAGE      0.000    0.699     0  00:50           0        2.92      35.227
  
  
  **********************
  Node Surcharge Summary
  **********************
  
  Surcharging occurs when water rises above the top of the highest conduit.
  ---------------------------------------------------------------------
                                               Max. Height   Min. Depth
                                   Hours       Above Crown    Below Rim
  Node                 Type      Surcharged         Meters       Meters
  ---------------------------------------------------------------------
  CSO10                JUNCTION        0.58          0.560        0.000
  CSO7                 JUNCTION        0.65          0.945        0.000
  CSO8                 JUNCTION        0.74          1.547        0.000
  CSO9                 JUNCTION        0.72          1.682        0.000
  J4                   JUNCTION        0.62          0.767        0.933
  
  
  *********************
  Node Flooding Summary
  *********************
  
  Flooding refers to all water that overflows a node, whether it ponds or not.
  --------------------------------------------------------------------------
                                                             Total   Maximum
                                 Maximum   Time of Max       Flood    Ponded
                        Hours       Rate    Occurrence      Volume     Depth
  Node                 Flooded       CMS   days hr:min    10^6 ltr    Meters
  --------------------------------------------------------------------------
  CSO10                   0.47     0.063      0  00:40       0.068     0.000
  CSO7                    0.45     0.021      0  00:45       0.023     0.000
  CSO8                    0.45     0.138      0  00:40       0.143     0.000
  CSO9                    0.35     0.019      0  00:45       0.015     0.000
  T1                      1.38     0.687      0  00:57       0.943     0.000
  T6                      1.45     0.448      0  01:09       0.723     0.000
  
  
  **********************
  Storage Volume Summary
  **********************
  
  --------------------------------------------------------------------------------------------------
                         Average     Avg  Evap Exfil       Maximum     Max    Time of Max    Maximum
                          Volume    Pcnt  Pcnt  Pcnt        Volume    Pcnt     Occurrence    Outflow
  Storage Unit           1000 m3    Full  Loss  Loss       1000 m3    Full    days hr:min        CMS
  --------------------------------------------------------------------------------------------------
  T1                       0.536      77     0     0         0.700     100       0  00:57      0.271
  T2                       0.542      54     0     0         0.759      76       0  02:24      0.029
  T3                       1.296      50     0     0         1.948      75       0  02:57      0.107
  T4                       0.240      48     0     0         0.367      73       0  02:30      0.024
  T5                       0.331      66     0     0         0.464      93       0  02:04      0.038
  T6                       0.439      73     0     0         0.600     100       0  01:09      0.075
  
  
  ***********************
  Outfall Loading Summary
  ***********************
  
  -----------------------------------------------------------
                         Flow       Avg       Max       Total
                         Freq      Flow      Flow      Volume
  Outfall Node           Pcnt       CMS       CMS    10^6 ltr
  -----------------------------------------------------------
  Out_to_WWTP           97.36     0.225     0.271       3.249
  -----------------------------------------------------------
  System                97.36     0.225     0.271       3.249
  
  
  ********************
  Link Flow Summary
  ********************
  
  -----------------------------------------------------------------------------
                                 Maximum  Time of Max   Maximum    Max/    Max/
                                  |Flow|   Occurrence   |Veloc|    Full    Full
  Link                 Type          CMS  days hr:min     m/sec    Flow   Depth
  -----------------------------------------------------------------------------
  C1                   CONDUIT     0.038     0  02:05      1.09    0.01    0.10
  C10                  CONDUIT     0.699     0  00:50      2.35    0.07    0.59
  C11                  CONDUIT     0.168     0  02:37      1.66    0.01    0.11
  C12                  CONDUIT     0.075     0  02:22      1.13    0.01    0.10
  C13                  CONDUIT     0.978     0  00:42      2.89    0.06    0.58
  C14                  CONDUIT     0.271     0  00:59      2.08    0.02    0.09
  C15                  CONDUIT     0.486     0  00:57      3.45    1.55    0.83
  C16                  CONDUIT     0.486     0  00:35      1.79    0.05    0.15
  C17                  CONDUIT     0.952     0  00:38      3.13    0.05    0.15
  C18                  CONDUIT     0.550     0  00:40      2.33    0.02    0.55
  C19                  CONDUIT     0.029     0  02:26      0.58    0.01    0.20
  C2                   CONDUIT     0.024     0  02:32      0.79    0.03    0.16
  C20                  CONDUIT     0.810     0  00:40      3.12    0.03    0.14
  C21                  CONDUIT     0.202     0  00:57      1.84    1.16    0.69
  C22                  CONDUIT     0.202     0  00:58      1.65    0.09    0.32
  C23                  CONDUIT     1.084     0  00:45      2.32    0.12    0.62
  C3                   CONDUIT     0.107     0  02:58      1.69    0.04    0.13
  C4                   CONDUIT     0.377     0  00:40      2.08    0.09    0.60
  C5                   CONDUIT     0.079     0  00:36      1.54    1.34    1.00
  C6                   CONDUIT     0.071     0  00:46      1.28    1.13    0.75
  C7                   CONDUIT     0.203     0  00:46      1.81    0.05    0.58
  C8                   CONDUIT     0.127     0  00:55      1.76    1.60    0.86
  C9                   CONDUIT     0.127     0  00:55      1.33    0.43    0.50
  V1                   ORIFICE     0.271     0  00:57                      1.00
  V2                   ORIFICE     0.029     0  02:24                      0.24
  V3                   ORIFICE     0.107     0  02:57                      0.65
  V4                   ORIFICE     0.024     0  02:30                      0.35
  V5                   ORIFICE     0.038     0  02:04                      1.00
  V6                   ORIFICE     0.075     0  01:09                      0.43
  
  
  ***************************
  Flow Classification Summary
  ***************************
  
  -------------------------------------------------------------------------------------
                      Adjusted    ---------- Fraction of Time in Flow Class ---------- 
                       /Actual         Up    Down  Sub   Sup   Up    Down  Norm  Inlet 
  Conduit               Length    Dry  Dry   Dry   Crit  Crit  Crit  Crit  Ltd   Ctrl  
  -------------------------------------------------------------------------------------
  C1                      1.00   0.00  0.00  0.00  0.01  0.99  0.00  0.00  0.88  0.00
  C10                     1.00   0.00  0.00  0.00  0.89  0.11  0.00  0.00  0.91  0.00
  C11                     1.00   0.00  0.00  0.00  0.48  0.52  0.00  0.00  1.00  0.00
  C12                     1.00   0.00  0.00  0.00  0.67  0.33  0.00  0.00  0.79  0.00
  C13                     1.00   0.00  0.00  0.00  0.84  0.16  0.00  0.00  0.87  0.00
  C14                     1.00   0.01  0.00  0.00  0.02  0.97  0.00  0.00  0.37  0.00
  C15                     1.00   0.02  0.00  0.00  0.00  0.98  0.00  0.00  0.00  0.00
  C16                     1.00   0.00  0.02  0.00  0.13  0.85  0.00  0.00  0.09  0.00
  C17                     1.00   0.00  0.00  0.00  0.26  0.74  0.00  0.00  0.90  0.00
  C18                     1.00   0.00  0.00  0.00  0.90  0.10  0.00  0.00  0.93  0.00
  C19                     1.00   0.00  0.00  0.00  1.00  0.00  0.00  0.00  1.00  0.00
  C2                      1.00   0.00  0.00  0.00  0.88  0.11  0.00  0.00  0.96  0.00
  C20                     1.00   0.00  0.00  0.00  0.40  0.60  0.00  0.00  0.94  0.00
  C21                     1.00   0.00  0.00  0.00  0.02  0.98  0.00  0.00  0.00  0.00
  C22                     1.00   0.00  0.00  0.00  0.57  0.43  0.00  0.00  1.00  0.00
  C23                     1.00   0.00  0.00  0.00  0.89  0.11  0.00  0.00  0.90  0.00
  C3                      1.00   0.00  0.01  0.00  0.06  0.92  0.00  0.00  0.07  0.00
  C4                      1.00   0.00  0.00  0.00  0.91  0.09  0.00  0.00  0.93  0.00
  C5                      1.00   0.00  0.00  0.00  0.88  0.12  0.00  0.00  0.70  0.00
  C6                      1.00   0.00  0.00  0.00  0.39  0.61  0.00  0.00  0.01  0.00
  C7                      1.00   0.00  0.00  0.00  0.88  0.12  0.00  0.00  0.91  0.00
  C8                      1.00   0.00  0.00  0.00  0.33  0.67  0.00  0.00  0.00  0.00
  C9                      1.00   0.00  0.00  0.00  1.00  0.00  0.00  0.00  1.00  0.00
  
  
  *************************
  Conduit Surcharge Summary
  *************************
  
  ----------------------------------------------------------------------------
                                                           Hours        Hours 
                         --------- Hours Full --------   Above Full   Capacity
  Conduit                Both Ends  Upstream  Dnstream   Normal Flow   Limited
  ----------------------------------------------------------------------------
  C10                         0.01      0.01      3.31      0.01         0.01
  C13                         0.01      0.01      3.02      0.01         0.01
  C15                         0.01      0.74      0.01      0.77         0.01
  C18                         0.01      0.01      3.17      0.01         0.01
  C21                         0.01      0.58      0.01      0.57         0.01
  C23                         0.01      0.01      3.39      0.01         0.01
  C4                          0.01      0.01      3.44      0.01         0.01
  C5                          0.62      0.65      0.72      0.68         0.60
  C6                          0.01      0.62      0.01      0.53         0.01
  C7                          0.01      0.01      3.26      0.01         0.01
  C8                          0.01      0.72      0.01      0.73         0.01
  

  Analysis begun on:  Tue Dec 21 09:11:16 2021
  Analysis ended on:  Tue Dec 21 09:11:16 2021
  Total elapsed time: < 1 sec