
  EPA STORM WATER MANAGEMENT MODEL - VERSION 5.1 (Build 5.3.0.dev0)
  --------------------------------------------------------------

  
  *********************************************************
  NOTE: The summary statistics displayed in this report are
  based on results found at every computational time step,  
  not just on results from each reporting time step.
  *********************************************************
  
  ****************
  Analysis Options
  ****************
  Flow Units ............... CMS
  Process Models:
    Rainfall/Runoff ........ YES
    RDII ................... NO
    Snowmelt ............... NO
    Groundwater ............ NO
    Flow Routing ........... YES
    Ponding Allowed ........ NO
    Water Quality .......... NO
  Infiltration Method ...... HORTON
  Flow Routing Method ...... DYNWAVE
  Surcharge Method ......... EXTRAN
  Starting Date ............ 08/15/2007 13:50:00
  Ending Date .............. 08/15/2007 21:35:00
  Antecedent Dry Days ...... 0.0
  Report Time Step ......... 00:05:00
  Wet Time Step ............ 00:05:00
  Dry Time Step ............ 01:00:00
  Routing Time Step ........ 30.00 sec
  Variable Time Step ....... YES
  Maximum Trials ........... 8
  Number of Threads ........ 1
  Head Tolerance ........... 0.001500 m
  
  
  **************************        Volume         Depth
  Runoff Quantity Continuity     hectare-m            mm
  **************************     ---------       -------
  Total Precipitation ......         1.162         6.446
  Evaporation Loss .........         0.000         0.000
  Infiltration Loss ........         0.000         0.000
  Surface Runoff ...........         1.118         6.206
  Final Storage ............         0.045         0.251
  Continuity Error (%) .....        -0.162
  
  
  **************************        Volume        Volume
  Flow Routing Continuity        hectare-m      10^6 ltr
  **************************     ---------     ---------
  Dry Weather Inflow .......         0.278         2.780
  Wet Weather Inflow .......         1.118        11.177
  Groundwater Inflow .......         0.000         0.000
  RDII Inflow ..............         0.000         0.000
  External Inflow ..........         0.000         0.000
  External Outflow .........         0.452         4.522
  Flooding Loss ............         0.059         0.588
  Evaporation Loss .........         0.000         0.000
  Exfiltration Loss ........         0.000         0.000
  Initial Stored Volume ....         0.000         0.000
  Final Stored Volume ......         0.661         6.607
  Continuity Error (%) .....        16.056
  
  
  *************************
  Highest Continuity Errors
  *************************
  Node T2 (36.37%)
  Node T6 (29.77%)
  Node T4 (28.67%)
  Node T5 (28.14%)
  Node T3 (24.83%)
  
  
  ***************************
  Time-Step Critical Elements
  ***************************
  Link C15 (48.37%)
  
  
  ********************************
  Highest Flow Instability Indexes
  ********************************
  Link C23 (4)
  Link C11 (4)
  Link V3 (4)
  Link C3 (3)
  Link V6 (3)
  
  
  *************************
  Routing Time Step Summary
  *************************
  Minimum Time Step           :     0.30 sec
  Average Time Step           :    26.79 sec
  Maximum Time Step           :    30.00 sec
  Percent in Steady State     :     1.29
  Average Iterations per Step :     2.02
  Percent Not Converging      :     0.00
  
  
  ***************************
  Subcatchment Runoff Summary
  ***************************
  
  ------------------------------------------------------------------------------------------------------------------------------
                            Total      Total      Total      Total     Imperv       Perv      Total       Total     Peak  Runoff
                           Precip      Runon       Evap      Infil     Runoff     Runoff     Runoff      Runoff   Runoff   Coeff
  Subcatchment                 mm         mm         mm         mm         mm         mm         mm    10^6 ltr      CMS
  ------------------------------------------------------------------------------------------------------------------------------
  SC01                       6.83       0.00       0.00       0.00       6.69       0.00       6.69        2.21     0.31   0.980
  SC010                      6.83       0.00       0.00       0.00       6.62       0.00       6.62        0.78     0.10   0.970
  SC02                       7.67       0.00       0.00       0.00       7.51       0.00       7.51        1.71     0.24   0.980
  SC03                       5.53       0.00       0.00       0.00       5.44       0.00       5.44        0.98     0.15   0.983
  SC04                       7.67       0.00       0.00       0.00       7.27       0.00       7.27        0.50     0.06   0.947
  SC05                       6.83       0.00       0.00       0.00       6.67       0.00       6.67        1.04     0.15   0.977
  SC06                       5.86       0.00       0.00       0.00       5.36       0.00       5.36        1.74     0.23   0.915
  SC07                       7.67       0.00       0.00       0.00       7.27       0.00       7.27        0.35     0.04   0.948
  SC08                       5.53       0.00       0.00       0.00       5.32       0.00       5.32        1.49     0.20   0.963
  SC09                       5.86       0.00       0.00       0.00       5.58       0.00       5.58        0.38     0.05   0.952
  
  
  ******************
  Node Depth Summary
  ******************
  
  ---------------------------------------------------------------------------------
                                 Average  Maximum  Maximum  Time of Max    Reported
                                   Depth    Depth      HGL   Occurrence   Max Depth
  Node                 Type       Meters   Meters   Meters  days hr:min      Meters
  ---------------------------------------------------------------------------------
  CSO10                JUNCTION     0.13     0.27    30.27     0  04:30        0.27
  CSO7                 JUNCTION     0.10     0.19    34.19     0  05:35        0.19
  CSO8                 JUNCTION     0.13     0.27    32.27     0  04:25        0.27
  CSO9                 JUNCTION     0.11     0.21    40.21     0  05:36        0.21
  J1                   JUNCTION     0.08     0.13    34.13     0  04:26        0.13
  J10                  JUNCTION     0.10     0.18    29.18     0  04:25        0.18
  J11                  JUNCTION     0.10     0.19    31.19     0  04:26        0.19
  J12                  JUNCTION     0.13     0.21    26.21     0  04:31        0.21
  J13                  JUNCTION     0.07     0.14    29.14     0  05:35        0.14
  J14                  JUNCTION     0.09     0.16    20.16     0  05:12        0.16
  J15                  JUNCTION     0.16     0.25    15.25     0  04:34        0.25
  J16                  JUNCTION     0.08     0.14    30.14     0  04:26        0.14
  J17                  JUNCTION     0.05     0.13    20.13     0  05:40        0.13
  J18                  JUNCTION     0.06     0.12    29.12     0  04:31        0.12
  J19                  JUNCTION     0.13     0.17     8.17     0  05:06        0.17
  J2                   JUNCTION     0.06     0.08    25.08     0  06:14        0.08
  J3                   JUNCTION     0.09     0.13    18.13     0  05:15        0.13
  J4                   JUNCTION     0.13     0.22    33.22     0  05:37        0.22
  J5                   JUNCTION     0.07     0.12    32.12     0  05:36        0.12
  J6                   JUNCTION     0.05     0.11    25.11     0  05:45        0.11
  J7                   JUNCTION     0.08     0.15    39.15     0  05:39        0.15
  J8                   JUNCTION     0.11     0.18    36.18     0  05:39        0.18
  J9                   JUNCTION     0.09     0.16    29.16     0  06:10        0.16
  Out_to_WWTP          OUTFALL      0.13     0.17     6.17     0  06:08        0.17
  T1                   STORAGE      2.51     5.00    15.00     0  05:05        5.00
  T2                   STORAGE      1.81     3.97    24.97     0  06:50        3.97
  T3                   STORAGE      1.65     3.75    25.75     0  07:20        3.75
  T4                   STORAGE      2.02     4.52    31.52     0  07:00        4.52
  T5                   STORAGE      2.14     4.54    31.54     0  06:12        4.54
  T6                   STORAGE      1.90     5.00    36.00     0  07:21        5.00
  
  
  *******************
  Node Inflow Summary
  *******************
  
  -------------------------------------------------------------------------------------------------
                                  Maximum  Maximum                  Lateral       Total        Flow
                                  Lateral    Total  Time of Max      Inflow      Inflow     Balance
                                   Inflow   Inflow   Occurrence      Volume      Volume       Error
  Node                 Type           CMS      CMS  days hr:min    10^6 ltr    10^6 ltr     Percent
  -------------------------------------------------------------------------------------------------
  CSO10                JUNCTION     0.108    0.108     0  04:30       0.878       0.878       0.053
  CSO7                 JUNCTION     0.053    0.053     0  05:35       0.553       0.553       0.081
  CSO8                 JUNCTION     0.196    0.196     0  04:25        1.65        1.65       0.017
  CSO9                 JUNCTION     0.057    0.057     0  05:35       0.525       0.526       0.088
  J1                   JUNCTION     0.160    0.160     0  04:25        1.44        1.44       0.020
  J10                  JUNCTION     0.162    0.348     0  04:25        1.25         2.9       0.098
  J11                  JUNCTION     0.000    0.196     0  04:25           0        1.65       0.199
  J12                  JUNCTION     0.000    0.406     0  04:28           0        4.32       0.257
  J13                  JUNCTION     0.249    0.249     0  05:35        2.04        2.04      -0.122
  J14                  JUNCTION     0.000    0.132     0  05:15           0         1.3       0.286
  J15                  JUNCTION     0.000    0.583     0  05:38           0        6.27       1.036
  J16                  JUNCTION     0.328    0.328     0  04:25         2.6         2.6       0.007
  J17                  JUNCTION     0.000    0.115     0  05:40           0       0.531       0.945
  J18                  JUNCTION     0.000    0.107     0  04:30           0       0.878       0.132
  J19                  JUNCTION     0.000    0.271     0  05:05           0        4.53       0.248
  J2                   JUNCTION     0.000    0.037     0  06:12           0       0.628       0.828
  J3                   JUNCTION     0.000    0.180     0  05:05           0        2.29       1.182
  J4                   JUNCTION     0.000    0.052     0  05:35           0       0.553       0.545
  J5                   JUNCTION     0.068    0.119     0  05:35       0.592        1.14       0.131
  J6                   JUNCTION     0.000    0.068     0  05:45           0       0.377       0.975
  J7                   JUNCTION     0.000    0.057     0  05:36           0       0.525       0.537
  J8                   JUNCTION     0.252    0.307     0  05:37        2.42        2.94       0.202
  J9                   JUNCTION     0.000    0.159     0  06:10           0        1.44       0.582
  Out_to_WWTP          OUTFALL      0.000    0.271     0  05:06           0        4.52       0.000
  T1                   STORAGE      0.000    0.559     0  04:34           0        6.21      10.590
  T2                   STORAGE      0.000    0.247     0  05:35           0        2.05      57.158
  T3                   STORAGE      0.000    0.399     0  04:31           0        4.31      33.026
  T4                   STORAGE      0.000    0.118     0  05:36           0        1.14      40.196
  T5                   STORAGE      0.000    0.159     0  04:26           0        1.44      39.167
  T6                   STORAGE      0.000    0.307     0  05:39           0        2.93      42.383
  
  
  **********************
  Node Surcharge Summary
  **********************
  
  No nodes were surcharged.
  
  
  *********************
  Node Flooding Summary
  *********************
  
  Flooding refers to all water that overflows a node, whether it ponds or not.
  --------------------------------------------------------------------------
                                                             Total   Maximum
                                 Maximum   Time of Max       Flood    Ponded
                        Hours       Rate    Occurrence      Volume     Depth
  Node                 Flooded       CMS   days hr:min    10^6 ltr    Meters
  --------------------------------------------------------------------------
  T1                      0.94     0.284      0  05:41       0.565     0.000
  T6                      0.40     0.021      0  07:21       0.023     0.000
  
  
  **********************
  Storage Volume Summary
  **********************
  
  --------------------------------------------------------------------------------------------------
                         Average     Avg  Evap Exfil       Maximum     Max    Time of Max    Maximum
                          Volume    Pcnt  Pcnt  Pcnt        Volume    Pcnt     Occurrence    Outflow
  Storage Unit           1000 m3    Full  Loss  Loss       1000 m3    Full    days hr:min        CMS
  --------------------------------------------------------------------------------------------------
  T1                       0.351      50     0     0         0.700     100       0  05:05      0.271
  T2                       0.361      36     0     0         0.794      79       0  06:50      0.115
  T3                       0.860      33     0     0         1.949      75       0  07:20      0.132
  T4                       0.202      40     0     0         0.452      90       0  07:00      0.068
  T5                       0.214      43     0     0         0.454      91       0  06:12      0.037
  T6                       0.228      38     0     0         0.600     100       0  07:21      0.159
  
  
  ***********************
  Outfall Loading Summary
  ***********************
  
  -----------------------------------------------------------
                         Flow       Avg       Max       Total
                         Freq      Flow      Flow      Volume
  Outfall Node           Pcnt       CMS       CMS    10^6 ltr
  -----------------------------------------------------------
  Out_to_WWTP           99.13     0.169     0.271       4.521
  -----------------------------------------------------------
  System                99.13     0.169     0.271       4.521
  
  
  ********************
  Link Flow Summary
  ********************
  
  -----------------------------------------------------------------------------
                                 Maximum  Time of Max   Maximum    Max/    Max/
                                  |Flow|   Occurrence   |Veloc|    Full    Full
  Link                 Type          CMS  days hr:min     m/sec    Flow   Depth
  -----------------------------------------------------------------------------
  C1                   CONDUIT     0.037     0  06:14      1.09    0.01    0.10
  C10                  CONDUIT     0.307     0  05:39      1.81    0.03    0.56
  C11                  CONDUIT     0.163     0  05:15      1.42    0.01    0.09
  C12                  CONDUIT     0.159     0  06:10      1.32    0.01    0.09
  C13                  CONDUIT     0.399     0  04:31      1.44    0.02    0.55
  C14                  CONDUIT     0.271     0  05:06      2.08    0.02    0.09
  C15                  CONDUIT     0.196     0  04:25      2.40    0.62    0.51
  C16                  CONDUIT     0.193     0  04:26      1.31    0.02    0.09
  C17                  CONDUIT     0.346     0  04:26      2.22    0.02    0.10
  C18                  CONDUIT     0.247     0  05:35      3.17    0.01    0.53
  C19                  CONDUIT     0.112     0  05:40      1.09    0.04    0.19
  C2                   CONDUIT     0.068     0  05:45      1.79    0.08    0.20
  C20                  CONDUIT     0.327     0  04:26      3.22    0.01    0.10
  C21                  CONDUIT     0.107     0  04:30      1.64    0.62    0.45
  C22                  CONDUIT     0.107     0  04:31      1.25    0.05    0.23
  C23                  CONDUIT     0.559     0  04:34      1.34    0.06    0.58
  C3                   CONDUIT     0.132     0  05:14      1.99    0.05    0.14
  C4                   CONDUIT     0.159     0  04:26      3.10    0.04    0.57
  C5                   CONDUIT     0.052     0  05:35      1.34    0.90    0.80
  C6                   CONDUIT     0.051     0  05:37      1.24    0.81    0.57
  C7                   CONDUIT     0.118     0  05:36      1.56    0.03    0.56
  C8                   CONDUIT     0.057     0  05:36      1.25    0.72    0.56
  C9                   CONDUIT     0.056     0  05:39      0.99    0.19    0.33
  V1                   ORIFICE     0.271     0  05:05                      1.00
  V2                   ORIFICE     0.115     0  05:40                      1.00
  V3                   ORIFICE     0.132     0  05:15                      1.00
  V4                   ORIFICE     0.068     0  05:45                      1.00
  V5                   ORIFICE     0.037     0  06:12                      1.00
  V6                   ORIFICE     0.159     0  06:10                      1.00
  
  
  ***************************
  Flow Classification Summary
  ***************************
  
  -------------------------------------------------------------------------------------
                      Adjusted    ---------- Fraction of Time in Flow Class ---------- 
                       /Actual         Up    Down  Sub   Sup   Up    Down  Norm  Inlet 
  Conduit               Length    Dry  Dry   Dry   Crit  Crit  Crit  Crit  Ltd   Ctrl  
  -------------------------------------------------------------------------------------
  C1                      1.00   0.00  0.00  0.00  0.28  0.71  0.00  0.00  0.96  0.00
  C10                     1.00   0.00  0.00  0.00  0.97  0.03  0.00  0.00  0.98  0.00
  C11                     1.00   0.00  0.00  0.00  0.46  0.54  0.00  0.00  1.00  0.00
  C12                     1.00   0.00  0.00  0.00  0.79  0.20  0.00  0.00  1.00  0.00
  C13                     1.00   0.00  0.00  0.00  0.86  0.14  0.00  0.00  0.90  0.00
  C14                     1.00   0.01  0.00  0.00  0.01  0.98  0.00  0.00  0.44  0.00
  C15                     1.00   0.00  0.00  0.00  0.00  1.00  0.00  0.00  0.00  0.00
  C16                     1.00   0.00  0.00  0.00  0.29  0.70  0.00  0.00  0.24  0.00
  C17                     1.00   0.00  0.00  0.00  0.05  0.95  0.00  0.00  0.97  0.00
  C18                     1.00   0.00  0.00  0.00  0.95  0.05  0.00  0.00  0.98  0.00
  C19                     1.00   0.00  0.00  0.00  0.97  0.03  0.00  0.00  1.00  0.00
  C2                      1.00   0.00  0.00  0.00  0.72  0.28  0.00  0.00  0.97  0.00
  C20                     1.00   0.00  0.00  0.00  0.25  0.75  0.00  0.00  0.98  0.00
  C21                     1.00   0.00  0.00  0.00  0.00  1.00  0.00  0.00  0.00  0.00
  C22                     1.00   0.00  0.00  0.00  0.82  0.18  0.00  0.00  1.00  0.00
  C23                     1.00   0.00  0.00  0.00  0.89  0.11  0.00  0.00  0.95  0.00
  C3                      1.00   0.00  0.00  0.00  0.05  0.94  0.00  0.00  0.61  0.00
  C4                      1.00   0.00  0.00  0.00  0.97  0.03  0.00  0.00  0.98  0.00
  C5                      1.00   0.00  0.00  0.00  0.87  0.13  0.00  0.00  0.98  0.00
  C6                      1.00   0.00  0.00  0.00  0.01  0.99  0.00  0.00  0.00  0.00
  C7                      1.00   0.00  0.00  0.00  0.95  0.05  0.00  0.00  0.97  0.00
  C8                      1.00   0.00  0.00  0.00  0.00  1.00  0.00  0.00  0.00  0.00
  C9                      1.00   0.00  0.00  0.00  1.00  0.00  0.00  0.00  1.00  0.00
  
  
  *************************
  Conduit Surcharge Summary
  *************************
  
  ----------------------------------------------------------------------------
                                                           Hours        Hours 
                         --------- Hours Full --------   Above Full   Capacity
  Conduit                Both Ends  Upstream  Dnstream   Normal Flow   Limited
  ----------------------------------------------------------------------------
  C10                         0.01      0.01      3.08      0.01         0.01
  C13                         0.01      0.01      2.95      0.01         0.01
  C18                         0.01      0.01      3.04      0.01         0.01
  C23                         0.01      0.01      4.13      0.01         0.01
  C4                          0.01      0.01      4.56      0.01         0.01
  C7                          0.01      0.01      4.67      0.01         0.01
  

  Analysis begun on:  Thu Feb 10 00:14:42 2022
  Analysis ended on:  Thu Feb 10 00:14:43 2022
  Total elapsed time: 00:00:01