
  OWA STORM WATER MANAGEMENT MODEL - VERSION v5.1.14 (OWA 2022-07-31)
  --------------------------------------------------------------

  WARNING 04: minimum elevation drop used for Conduit WS02004404WS02004405
  WARNING 03: negative offset ignored for Link YS02001904YS02001907
  
  *********************************************************
  NOTE: The summary statistics displayed in this report are
  based on results found at every computational time step,  
  not just on results from each reporting time step.
  *********************************************************
  
  ****************
  Analysis Options
  ****************
  Flow Units ............... LPS
  Process Models:
    Rainfall/Runoff ........ YES
    RDII ................... NO
    Snowmelt ............... NO
    Groundwater ............ NO
    Flow Routing ........... YES
    Ponding Allowed ........ NO
    Water Quality .......... NO
  Infiltration Method ...... HORTON
  Flow Routing Method ...... DYNWAVE
  Surcharge Method ......... EXTRAN
  Starting Date ............ 01/01/2000 00:00:00
  Ending Date .............. 01/01/2000 06:00:00
  Antecedent Dry Days ...... 8.0
  Report Time Step ......... 00:01:00
  Wet Time Step ............ 00:01:00
  Dry Time Step ............ 00:01:00
  Routing Time Step ........ 30.00 sec
  Variable Time Step ....... YES
  Maximum Trials ........... 8
  Number of Threads ........ 4
  Head Tolerance ........... 0.001500 m
  
  
  **************************        Volume         Depth
  Runoff Quantity Continuity     hectare-m            mm
  **************************     ---------       -------
  Total Precipitation ......         3.605        59.508
  Evaporation Loss .........         0.000         0.000
  Infiltration Loss ........         0.244         4.031
  Surface Runoff ...........         3.295        54.399
  Final Storage ............         0.066         1.091
  Continuity Error (%) .....        -0.022
  
  
  **************************        Volume        Volume
  Flow Routing Continuity        hectare-m      10^6 ltr
  **************************     ---------     ---------
  Dry Weather Inflow .......         0.472         4.722
  Wet Weather Inflow .......         3.296        32.961
  Groundwater Inflow .......         0.000         0.000
  RDII Inflow ..............         0.000         0.000
  External Inflow ..........         0.078         0.784
  External Outflow .........         2.420        24.195
  Flooding Loss ............         1.613        16.134
  Evaporation Loss .........         0.000         0.000
  Exfiltration Loss ........         0.000         0.000
  Initial Stored Volume ....         0.303         3.031
  Final Stored Volume ......         0.259         2.592
  Continuity Error (%) .....        -3.431
  
  
  *************************
  Highest Continuity Errors
  *************************
  Node JK-storage (-31.20%)
  Node YS02001884 (5.21%)
  Node YS02001583 (-4.02%)
  Node HS02004842 (1.88%)
  Node HS02004817 (1.03%)
  
  
  ***************************
  Time-Step Critical Elements
  ***************************
  Link WS02006252WS02006251 (45.62%)
  Link WS02006280WS02006229 (21.53%)
  Link YS02001793JiankangQianchi (6.87%)
  Link WS02004404WS02004405 (6.78%)
  Link WS02006238WS02006235 (2.99%)
  
  
  ********************************
  Highest Flow Instability Indexes
  ********************************
  Link WS02006113WS02006111 (33)
  Link WS02006111WS02006112 (22)
  Link WS02004404WS02004405 (16)
  Link WS02006238WS02006235 (15)
  Link WS02006229WS02006228 (14)
  
  
  *************************
  Routing Time Step Summary
  *************************
  Minimum Time Step           :     0.50 sec
  Average Time Step           :     1.59 sec
  Maximum Time Step           :    30.00 sec
  Percent in Steady State     :     0.00
  Average Iterations per Step :     3.00
  Percent Not Converging      :     8.75
  
  
  ***************************
  Subcatchment Runoff Summary
  ***************************
  
  ------------------------------------------------------------------------------------------------------------------------------
                            Total      Total      Total      Total     Imperv       Perv      Total       Total     Peak  Runoff
                           Precip      Runon       Evap      Infil     Runoff     Runoff     Runoff      Runoff   Runoff   Coeff
  Subcatchment                 mm         mm         mm         mm         mm         mm         mm    10^6 ltr      LPS
  ------------------------------------------------------------------------------------------------------------------------------
  sub0                      59.51       0.00       0.00       0.98      54.09       3.18      57.27        0.05    31.87   0.962
  sub1                      59.51       0.00       0.00       1.71      51.66       4.84      56.49        0.38   238.42   0.949
  sub10                     59.51       0.00       0.00       1.20      53.41       3.57      56.98        0.63   401.96   0.957
  sub11                     59.51       0.00       0.00       1.17      53.45       3.59      57.04        0.66   435.87   0.958
  sub12                     59.51       0.00       0.00       1.91      50.58       5.83      56.41        0.49   337.69   0.948
  sub14                     59.51       0.00       0.00       1.34      52.85       4.01      56.87        0.54   352.01   0.956
  sub15                     59.51       0.00       0.00       5.40      40.65      12.46      53.11        0.91   573.46   0.892
  sub16                     59.51       0.00       0.00       5.55      38.95      14.10      53.04        0.56   371.71   0.891
  sub17                     59.51       0.00       0.00       5.41      39.52      13.63      53.16        0.46   303.16   0.893
  sub2                      59.51       0.00       0.00       7.73      36.52      14.29      50.81        0.47   263.02   0.854
  sub22                     59.51       0.00       0.00       8.20      33.12      17.39      50.51        3.19  1951.17   0.849
  sub23                     59.51       0.00       0.00       6.67      36.61      15.35      51.96        2.48  1580.92   0.873
  sub3                      59.51       0.00       0.00       7.97      36.44      13.64      50.08        1.13   575.21   0.842
  sub4                      59.51       0.00       0.00       1.94      51.32       4.61      55.93        1.17   623.49   0.940
  sub5                      59.51       0.00       0.00       1.04      53.98       3.12      57.10        0.65   408.97   0.960
  sub60                     59.51       0.00       0.00       1.81      51.13       5.34      56.47        0.74   493.44   0.949
  sub61                     59.51       0.00       0.00       2.63      48.24       7.49      55.72        1.02   686.17   0.936
  sub62                     59.51       0.00       0.00       1.20      53.40       3.56      56.96        1.56   990.54   0.957
  sub63                     59.51       0.00       0.00       4.93      41.26      12.33      53.59        1.22   799.08   0.901
  sub64                     59.51       0.00       0.00       2.48      49.30       6.45      55.75        1.34   828.81   0.937
  sub65                     59.51       0.00       0.00       2.15      50.42       5.59      56.01        1.54   933.22   0.941
  sub66                     59.51       0.00       0.00       6.15      41.05      11.11      52.15        2.43  1284.26   0.876
  sub67                     59.51       0.00       0.00       1.15      53.48       3.62      57.10        1.06   718.93   0.960
  sub68                     59.51       0.00       0.00       2.18      49.95       6.15      56.10        1.54  1007.64   0.943
  sub69                     59.51       0.00       0.00       1.98      50.38       6.95      57.32        2.12  1242.27   0.963
  sub7                      59.51       0.00       0.00       1.32      52.88       4.04      56.92        0.19   127.72   0.957
  sub70                     59.51       0.00       0.00       6.65      38.96      13.58      52.54        1.52   724.64   0.883
  sub71                     59.51       0.00       0.00       1.24      53.32       3.52      56.84        1.49   897.45   0.955
  sub72                     59.51       0.00       0.00       1.11      53.78       3.06      56.83        0.78   444.11   0.955
  sub8                      59.51       0.00       0.00       1.34      52.86       4.02      56.88        0.36   238.02   0.956
  sub9                      59.51       0.00       0.00       1.34      52.86       4.02      56.87        0.27   178.45   0.956
  
  
  ******************
  Node Depth Summary
  ******************
  
  ---------------------------------------------------------------------------------
                                 Average  Maximum  Maximum  Time of Max    Reported
                                   Depth    Depth      HGL   Occurrence   Max Depth
  Node                 Type       Meters   Meters   Meters  days hr:min      Meters
  ---------------------------------------------------------------------------------
  HS02004478           JUNCTION     0.22     1.59    10.81     0  02:32        1.58
  HS02004479           JUNCTION     0.30     1.70    10.90     0  02:24        1.66
  HS02004480           JUNCTION     0.27     1.67    10.91     0  02:24        1.62
  HS02004770           JUNCTION     0.26     1.42    11.25     0  02:21        1.42
  HS02004777           JUNCTION     0.29     1.48    11.28     0  02:21        1.45
  HS02004785           JUNCTION     0.19     1.49    11.39     0  02:21        1.34
  HS02004788           JUNCTION     0.16     1.42    11.32     0  02:21        1.34
  HS02004792           JUNCTION     0.22     1.60    11.12     0  02:23        1.60
  HS02004799           JUNCTION     0.34     1.76    10.97     0  02:24        1.76
  HS02004802           JUNCTION     0.31     1.80    10.93     0  02:33        1.79
  HS02004807           JUNCTION     0.29     1.92    11.09     0  02:32        1.92
  HS02004817           JUNCTION     0.59     2.38    11.23     0  02:24        2.38
  HS02004824           JUNCTION     0.17     1.97    11.37     0  02:24        1.96
  HS02004830           JUNCTION     0.17     1.99    11.46     0  02:24        1.92
  HS02004837           JUNCTION     0.14     1.93    11.51     0  02:24        1.83
  HS02004842           JUNCTION     0.45     2.22    11.49     0  02:24        2.15
  HS02004848           JUNCTION     0.12     1.90    11.50     0  02:24        1.82
  HS02004852           JUNCTION     0.13     1.92    11.44     0  02:24        1.88
  HS02004856           JUNCTION     0.18     1.93    11.36     0  02:35        1.93
  HS02004862           JUNCTION     0.15     1.92    11.30     0  02:35        1.92
  HS02004870           JUNCTION     0.14     1.90    11.19     0  02:34        1.90
  HS02004876           JUNCTION     0.19     1.98    11.01     0  02:35        1.98
  HS02004881           JUNCTION     0.13     1.74    10.76     0  02:35        1.73
  HS02004901           JUNCTION     0.27     1.42    11.24     0  02:21        1.42
  WS02001211           JUNCTION     0.65     0.81     5.65     0  02:37        0.81
  WS02001212           JUNCTION     0.39     0.57     5.64     0  02:37        0.57
  WS02001213           JUNCTION     0.62     0.87     5.63     0  02:36        0.87
  WS02003059           JUNCTION     0.69     0.94     5.63     0  02:36        0.94
  WS02003060           JUNCTION     0.41     0.69     5.62     0  02:36        0.69
  WS02003066           JUNCTION     0.24     0.46     6.01     0  02:35        0.46
  WS02003067           JUNCTION     0.58     0.89     6.21     0  02:34        0.89
  WS02003069           JUNCTION     0.45     0.78     5.36     0  02:36        0.78
  WS02003072           JUNCTION     0.52     0.81     5.18     0  02:37        0.81
  WS02003073           JUNCTION     0.31     0.52     4.58     0  02:37        0.52
  WS02004138           JUNCTION     0.14     0.14     7.39     0  00:29        0.14
  WS02004139           JUNCTION     0.59     0.74     5.65     0  02:38        0.74
  WS02004401           JUNCTION     0.83     1.87     7.87     0  02:35        1.86
  WS02004402           JUNCTION     0.84     1.81     7.77     0  02:35        1.80
  WS02004403           JUNCTION     0.85     1.74     7.67     0  02:35        1.73
  WS02004404           JUNCTION     0.91     1.74     7.59     0  02:34        1.73
  WS02004405           JUNCTION     0.90     1.69     7.54     0  02:35        1.69
  WS02004406           JUNCTION     0.89     1.58     7.41     0  02:35        1.57
  WS02004407           JUNCTION     0.29     0.94     7.25     0  02:35        0.93
  WS02004409           JUNCTION     0.58     1.39     7.16     0  02:35        1.38
  WS02004410           JUNCTION     0.59     1.30     7.02     0  02:34        1.30
  WS02004411           JUNCTION     0.59     1.21     6.89     0  02:34        1.20
  WS02004412           JUNCTION     0.59     1.11     6.75     0  02:35        1.11
  WS02004413           JUNCTION     0.74     1.15     6.62     0  02:35        1.14
  WS02006109           JUNCTION     1.05     2.64     9.26     0  02:21        2.64
  WS02006110           JUNCTION     0.98     2.40     8.98     0  02:34        2.38
  WS02006111           JUNCTION     0.44     1.75     8.46     0  02:34        1.73
  WS02006112           JUNCTION     1.05     2.68     8.56     0  00:00        2.38
  WS02006113           JUNCTION     0.54     1.83     8.72     0  02:35        1.83
  WS02006115           JUNCTION     0.75     1.96     8.10     0  02:34        1.96
  WS02006116           JUNCTION     0.82     1.96     8.00     0  02:35        1.95
  WS02006228           JUNCTION     1.11     3.03     9.68     0  02:32        3.02
  WS02006229           JUNCTION     1.12     3.22     9.92     0  02:35        3.21
  WS02006230           JUNCTION     1.05     2.65     9.39     0  02:16        2.65
  WS02006231           JUNCTION     0.78     2.19     9.31     0  02:21        2.19
  WS02006232           JUNCTION     0.88     2.18     9.22     0  02:16        2.18
  WS02006234           JUNCTION     0.77     1.96     9.12     0  02:15        1.96
  WS02006235           JUNCTION     0.79     1.97     9.14     0  02:30        1.93
  WS02006238           JUNCTION     0.81     1.99     9.13     0  02:30        1.93
  WS02006239           JUNCTION     0.76     1.86     9.07     0  04:00        1.78
  WS02006240           JUNCTION     0.71     1.72     9.01     0  04:00        1.62
  WS02006242           JUNCTION     0.76     1.55     8.82     0  01:50        1.55
  WS02006243           JUNCTION     0.65     1.41     8.83     0  01:50        1.36
  WS02006245           JUNCTION     0.63     1.33     8.82     0  01:50        1.26
  WS02006247           JUNCTION     0.64     1.28     8.78     0  01:50        1.22
  WS02006248           JUNCTION     0.58     1.10     8.69     0  01:50        1.10
  WS02006249           JUNCTION     0.61     1.09     8.69     0  01:51        1.09
  WS02006251           JUNCTION     0.71     2.14     9.81     0  02:34        2.13
  WS02006252           JUNCTION     0.49     1.50     9.74     0  02:20        1.50
  WS02006253           JUNCTION     0.78     3.02    10.66     0  02:35        3.02
  WS02006256           JUNCTION     1.10     2.35     9.28     0  00:46        2.35
  WS02006280           JUNCTION     0.29     1.74    10.02     0  02:35        1.73
  WS02006284           JUNCTION     0.56     1.94    10.34     0  02:32        1.94
  WS02006287           JUNCTION     0.29     1.74    10.69     0  02:31        1.73
  WSF200               JUNCTION     0.24     0.52     5.76     0  02:35        0.52
  YS02001580           JUNCTION     0.08     1.05     9.59     0  02:19        0.77
  YS02001583           JUNCTION     0.10     1.14     9.64     0  02:19        0.81
  YS02001586           JUNCTION     0.19     1.13     9.30     0  02:19        1.13
  YS02001590           JUNCTION     0.29     1.37     9.23     0  02:25        1.37
  YS02001593           JUNCTION     0.22     1.29     9.15     0  02:19        1.28
  YS02001596           JUNCTION     0.30     1.66     9.08     0  02:19        1.65
  YS02001600           JUNCTION     0.37     1.86     8.99     0  02:39        1.86
  YS02001601           JUNCTION     0.56     2.06     8.90     0  02:18        2.06
  YS02001602           JUNCTION     0.48     1.87     8.77     0  02:22        1.87
  YS02001605           JUNCTION     0.44     1.78     8.68     0  02:41        1.77
  YS02001607           JUNCTION     0.42     1.65     8.49     0  02:25        1.64
  YS02001610           JUNCTION     0.46     1.68     8.48     0  02:22        1.68
  YS02001613           JUNCTION     0.42     1.66     8.50     0  02:34        1.65
  YS02001616           JUNCTION     0.37     1.60     8.51     0  02:33        1.59
  YS02001619           JUNCTION     0.35     1.59     8.52     0  02:32        1.58
  YS02001622           JUNCTION     0.33     1.56     8.47     0  02:32        1.56
  YS02001625           JUNCTION     0.53     1.78     8.38     0  02:23        1.78
  YS02001629           JUNCTION     0.44     1.85     8.40     0  02:23        1.85
  YS02001633           JUNCTION     0.51     2.01     8.47     0  02:25        1.97
  YS02001641           JUNCTION     0.49     1.96     8.40     0  02:25        1.93
  YS02001644           JUNCTION     0.49     1.92     8.35     0  02:25        1.92
  YS02001647           JUNCTION     0.31     1.77     8.38     0  02:31        1.75
  YS02001649           JUNCTION     0.36     2.01     8.40     0  02:31        1.97
  YS02001652           JUNCTION     0.26     2.06     8.65     0  02:25        1.80
  YS02001655           JUNCTION     0.20     1.99     8.84     0  02:25        1.59
  YS02001658           JUNCTION     0.15     2.14     9.28     0  02:25        1.33
  YS02001661           JUNCTION     0.16     1.37     8.77     0  02:31        1.12
  YS02001664           JUNCTION     0.06     0.54     8.46     0  02:31        0.51
  YS02001745           JUNCTION     0.08     0.82     8.34     0  02:35        0.82
  YS02001748           JUNCTION     0.15     1.57     8.65     0  02:27        1.25
  YS02001751           JUNCTION     0.18     1.69     8.57     0  02:27        1.44
  YS02001754           JUNCTION     0.23     1.81     8.42     0  02:27        1.71
  YS02001757           JUNCTION     0.39     2.05     8.31     0  02:31        2.03
  YS02001759           JUNCTION     0.34     2.01     8.38     0  02:31        1.99
  YS02001762           JUNCTION     0.33     1.98     8.38     0  02:31        1.97
  YS02001765           JUNCTION     0.31     1.95     8.40     0  02:31        1.93
  YS02001767           JUNCTION     0.31     1.91     8.40     0  02:31        1.90
  YS02001770           JUNCTION     0.32     1.92     8.41     0  02:31        1.92
  YS02001774           JUNCTION     0.37     1.98     8.40     0  02:31        1.97
  YS02001779           JUNCTION     0.21     1.68     8.37     0  02:22        1.68
  YS02001783           JUNCTION     0.24     1.98     8.12     0  02:35        1.47
  YS02001784           JUNCTION     0.26     1.99     8.06     0  02:35        1.42
  YS02001786           JUNCTION     0.22     1.98     8.01     0  02:35        1.26
  YS02001788           JUNCTION     0.16     2.09     8.07     0  02:35        1.13
  YS02001790           JUNCTION     0.20     1.96     7.60     0  02:35        1.29
  YS02001791           JUNCTION     0.15     2.32     7.79     0  02:14        1.27
  YS02001793           JUNCTION     0.15     1.96     6.79     0  02:35        1.80
  YS02001882           JUNCTION     0.29     1.64     8.35     0  02:35        1.63
  YS02001884           JUNCTION     0.36     1.74     8.35     0  02:35        1.73
  YS02001887           JUNCTION     0.44     1.82     8.35     0  02:35        1.81
  YS02001890           JUNCTION     0.47     1.81     8.32     0  02:25        1.81
  YS02001895           JUNCTION     0.26     1.57     8.31     0  02:28        1.56
  YS02001898           JUNCTION     0.26     1.56     8.30     0  02:27        1.56
  YS02001901           JUNCTION     0.35     1.68     8.29     0  02:31        1.67
  YS02001904           JUNCTION     0.33     1.64     8.27     0  02:35        1.63
  YS02001907           JUNCTION     0.63     1.96     8.25     0  02:24        1.96
  YS02001910           JUNCTION     0.44     1.87     8.38     0  02:34        1.87
  YS02001915           JUNCTION     0.29     1.76     8.47     0  02:34        1.75
  YS02001918           JUNCTION     0.16     1.52     8.59     0  02:25        1.43
  YS02001920           JUNCTION     0.24     1.63     8.64     0  02:25        1.51
  YS02001923           JUNCTION     0.12     1.43     8.69     0  02:25        1.30
  YS02001926           JUNCTION     0.16     1.25     8.69     0  02:25        1.17
  YS02001929           JUNCTION     0.09     1.00     8.70     0  02:25        0.98
  YS02006553           JUNCTION     0.64     2.07     8.35     0  02:35        1.97
  YS02006556           JUNCTION     0.61     2.17     8.48     0  02:35        1.95
  YS02006558           JUNCTION     0.65     2.26     8.52     0  02:35        1.99
  YS02006561           JUNCTION     0.15     1.47     8.13     0  02:35        1.08
  YS02163301           JUNCTION     0.46     1.92     8.43     0  02:25        1.89
  YS02163601           JUNCTION     0.55     2.04     8.44     0  02:25        2.00
  YS02164001           JUNCTION     0.48     1.96     8.42     0  02:25        1.92
  YSB1154              JUNCTION     0.42     1.91    10.97     0  02:34        1.91
  YSB1171              JUNCTION     0.58     1.95    10.85     0  02:24        1.95
  YSB1174              JUNCTION     0.38     1.80    10.91     0  02:32        1.79
  YSB6556              JUNCTION     0.33     1.74    10.91     0  02:24        1.74
  CC-1                 OUTFALL      0.00     0.00     0.00     0  00:00        0.00
  CC-2                 OUTFALL      0.00     0.00     0.00     0  00:00        0.00
  JK-1                 OUTFALL      0.00     0.00     0.00     0  00:00        0.00
  JK-2                 OUTFALL      0.00     0.00     0.00     0  00:00        0.00
  WSC                  OUTFALL      0.31     0.52     1.19     0  02:37        0.52
  CC-storage           STORAGE      0.84     1.89     7.39     0  02:49        1.89
  JK-storage           STORAGE      2.60     5.80     6.60     0  02:14        5.80
  XR-storage           STORAGE      7.56     8.66     6.66     0  06:00        8.66
  
  
  *******************
  Node Inflow Summary
  *******************
  
  -------------------------------------------------------------------------------------------------
                                  Maximum  Maximum                  Lateral       Total        Flow
                                  Lateral    Total  Time of Max      Inflow      Inflow     Balance
                                   Inflow   Inflow   Occurrence      Volume      Volume       Error
  Node                 Type           LPS      LPS  days hr:min    10^6 ltr    10^6 ltr     Percent
  -------------------------------------------------------------------------------------------------
  HS02004478           JUNCTION      0.00  2302.82     0  02:32           0        8.16      -0.010
  HS02004479           JUNCTION      0.00   381.90     0  02:25           0       0.797       0.145
  HS02004480           JUNCTION      0.00  2051.24     0  02:24           0        6.08       0.052
  HS02004770           JUNCTION   1580.92  1580.92     0  02:35        2.48         2.7       0.106
  HS02004777           JUNCTION      0.03   706.93     0  02:21    0.000648        1.79       0.309
  HS02004785           JUNCTION      0.15   713.32     0  02:20     0.00324        1.78       0.034
  HS02004788           JUNCTION    575.13   828.52     0  02:22        0.95        2.73       0.017
  HS02004792           JUNCTION   1951.45  2765.36     0  02:35         3.2        5.93      -0.002
  HS02004799           JUNCTION    352.01  1717.53     0  02:22       0.542        5.44       0.052
  HS02004802           JUNCTION      0.00  1232.76     0  02:35           0        2.19       0.189
  HS02004807           JUNCTION    435.87  1492.41     0  02:35       0.663        2.26       0.192
  HS02004817           JUNCTION      0.60  1059.31     0  02:35       0.013        1.65       1.038
  HS02004824           JUNCTION    623.54  1057.56     0  02:35        1.17        1.81       0.030
  HS02004830           JUNCTION      0.15   565.98     0  02:22     0.00324        0.81       0.151
  HS02004837           JUNCTION    408.31   752.83     0  02:22       0.766        1.13       0.050
  HS02004842           JUNCTION      0.00   744.17     0  02:24           0       0.698       1.917
  HS02004848           JUNCTION    575.21   985.14     0  02:24        1.13        1.66       0.008
  HS02004852           JUNCTION      0.00   957.86     0  02:24           0        1.51      -0.015
  HS02004856           JUNCTION    178.45  1016.13     0  02:23       0.274        1.79       0.073
  HS02004862           JUNCTION    263.22  1111.27     0  02:23       0.478        2.26      -0.006
  HS02004870           JUNCTION    238.02  1229.98     0  02:35       0.364        2.63      -0.000
  HS02004876           JUNCTION    238.42  1468.86     0  02:35       0.376           3       0.032
  HS02004881           JUNCTION    127.72  1595.92     0  02:35       0.192         3.2       0.001
  HS02004901           JUNCTION    371.71   637.25     0  02:35       0.556       0.874       0.202
  WS02001211           JUNCTION      7.35   205.22     0  03:07       0.159        4.02       0.828
  WS02001212           JUNCTION      0.00   213.06     0  03:03           0        3.98       0.395
  WS02001213           JUNCTION      0.00   218.40     0  03:03           0        3.97       0.453
  WS02003059           JUNCTION      0.00   223.98     0  03:03           0        3.96       0.813
  WS02003060           JUNCTION     16.53  1512.56     0  02:36       0.357        13.3       0.112
  WS02003066           JUNCTION      0.00  1306.95     0  02:35           0        8.99       0.017
  WS02003067           JUNCTION      0.00  1306.87     0  02:35           0        8.99       0.050
  WS02003069           JUNCTION      0.32  1512.44     0  02:36     0.00691        13.3       0.117
  WS02003072           JUNCTION      0.00  1511.97     0  02:36           0        13.2       0.159
  WS02003073           JUNCTION      1.82  1513.62     0  02:37      0.0393        13.3       0.166
  WS02004138           JUNCTION      0.00   190.00     0  00:29           0        3.88       0.084
  WS02004139           JUNCTION      0.32   191.33     0  00:29     0.00693        3.89       0.688
  WS02004401           JUNCTION      0.00  1308.57     0  02:35           0        9.11       0.132
  WS02004402           JUNCTION      0.00  1308.65     0  02:35           0         9.1       0.127
  WS02004403           JUNCTION      0.00  1308.10     0  02:35           0        9.09       0.122
  WS02004404           JUNCTION      0.16  1309.58     0  02:35      0.0035        9.08       0.101
  WS02004405           JUNCTION      0.04  1308.91     0  02:35    0.000823        9.07       0.144
  WS02004406           JUNCTION      0.00  1308.68     0  02:35           0        9.06       0.246
  WS02004407           JUNCTION      0.00  1308.44     0  02:35           0        9.03       0.018
  WS02004409           JUNCTION      0.00  1306.87     0  02:35           0        9.03       0.042
  WS02004410           JUNCTION      0.00  1307.18     0  02:35           0        9.03       0.058
  WS02004411           JUNCTION      0.00  1306.77     0  02:35           0        9.02       0.070
  WS02004412           JUNCTION      0.00  1307.00     0  02:35           0        9.01       0.091
  WS02004413           JUNCTION      0.00  1306.86     0  02:35           0        9.01       0.161
  WS02006109           JUNCTION      1.23  1308.01     0  00:00      0.0266        8.88       0.140
  WS02006110           JUNCTION      0.00  1125.06     0  02:45           0        8.61      -0.402
  WS02006111           JUNCTION      0.00  1176.04     0  00:00           0        8.64      -0.443
  WS02006112           JUNCTION    303.16  2307.30     0  00:00       0.456        9.13       0.006
  WS02006113           JUNCTION      0.00  1125.27     0  02:45           0         8.6      -0.512
  WS02006115           JUNCTION      0.00  2152.75     0  00:00           0        9.11       0.055
  WS02006116           JUNCTION      0.00  1308.36     0  02:35           0        9.11       0.028
  WS02006228           JUNCTION      0.00  1288.03     0  02:32           0        8.84       0.079
  WS02006229           JUNCTION      0.00  2304.67     0  02:32           0          11       0.069
  WS02006230           JUNCTION     10.28  1025.83     0  02:32       0.222        5.02       0.075
  WS02006231           JUNCTION      0.00   545.62     0  04:00           0        3.93      -0.025
  WS02006232           JUNCTION      0.00   545.65     0  04:00           0        3.94       0.121
  WS02006234           JUNCTION      0.00   538.24     0  04:00           0        3.93      -0.035
  WS02006235           JUNCTION      0.00   530.58     0  04:00           0        3.86       0.055
  WS02006238           JUNCTION      0.00   419.23     0  03:48           0        3.49      -0.047
  WS02006239           JUNCTION      0.00   419.19     0  03:48           0        3.49      -0.045
  WS02006240           JUNCTION      0.00   419.13     0  03:48           0        3.49       0.006
  WS02006242           JUNCTION      0.00   419.10     0  03:48           0        3.49       0.054
  WS02006243           JUNCTION      0.00   419.06     0  03:48           0        3.15      -0.019
  WS02006245           JUNCTION      0.00   419.01     0  03:48           0        3.15       0.072
  WS02006247           JUNCTION      0.00   418.95     0  03:48           0        3.16       0.019
  WS02006248           JUNCTION      0.00   418.87     0  03:48           0        3.39       0.020
  WS02006249           JUNCTION      0.00  1361.81     0  02:35           0        6.33       0.040
  WS02006251           JUNCTION      0.08  1629.03     0  02:35     0.00166        6.42      -0.016
  WS02006252           JUNCTION      0.00   669.06     0  02:35           0        3.69      -0.031
  WS02006253           JUNCTION     31.87  1628.19     0  02:35      0.0464        3.25       0.021
  WS02006256           JUNCTION      0.00   300.00     0  01:50           0       0.976       0.000
  WS02006280           JUNCTION      0.00  2303.07     0  02:32           0        8.14       0.002
  WS02006284           JUNCTION      0.10  2302.76     0  02:36     0.00207        8.14       0.014
  WS02006287           JUNCTION      0.00  2303.57     0  02:32           0        8.14       0.013
  WSF200               JUNCTION      0.00  1307.01     0  02:35           0        8.99       0.009
  YS02001580           JUNCTION      0.00    70.18     0  02:19           0     0.00405      -0.558
  YS02001583           JUNCTION      0.00   116.37     0  02:18           0      0.0155      -3.869
  YS02001586           JUNCTION    724.64   724.64     0  02:35        1.52        1.53       0.064
  YS02001590           JUNCTION      0.00   318.01     0  02:34           0        1.24      -0.012
  YS02001593           JUNCTION      0.00   318.19     0  02:37           0        1.24       0.012
  YS02001596           JUNCTION      0.00   318.24     0  02:37           0        1.24      -0.008
  YS02001600           JUNCTION      0.00   318.25     0  02:36           0        1.24       0.025
  YS02001601           JUNCTION   1242.27  1559.82     0  02:35        2.12        3.36       0.038
  YS02001602           JUNCTION      0.00   491.89     0  02:18           0        2.17       0.042
  YS02001605           JUNCTION      0.00   492.79     0  02:18           0        2.06       0.060
  YS02001607           JUNCTION      0.00   493.43     0  02:18           0        2.06       0.129
  YS02001610           JUNCTION      0.00   692.17     0  02:35           0         2.2       0.130
  YS02001613           JUNCTION      0.00   492.92     0  02:17           0        1.79       0.133
  YS02001616           JUNCTION      0.00   491.83     0  02:17           0        1.79       0.051
  YS02001619           JUNCTION   1284.26  1284.26     0  02:35        2.43        4.07       0.012
  YS02001622           JUNCTION      0.00   929.83     0  02:35           0        3.92       0.020
  YS02001625           JUNCTION      0.00  1331.78     0  02:35           0        4.12       0.271
  YS02001629           JUNCTION      0.00   901.97     0  02:21           0        3.12       0.013
  YS02001633           JUNCTION    933.42  1264.20     0  02:22        1.55        4.46       0.092
  YS02001641           JUNCTION      0.00  1262.07     0  02:22           0        4.25       0.078
  YS02001644           JUNCTION    828.85  1592.30     0  02:22        1.34        5.59       0.063
  YS02001647           JUNCTION      0.00  1592.53     0  02:22           0        5.16       0.009
  YS02001649           JUNCTION      0.00  1738.17     0  02:24           0        6.39       0.010
  YS02001652           JUNCTION      0.00   809.24     0  02:35           0        1.22      -0.075
  YS02001655           JUNCTION      0.15   809.08     0  02:35     0.00332        1.22      -0.007
  YS02001658           JUNCTION      0.00   809.52     0  02:35           0        1.22      -0.052
  YS02001661           JUNCTION      0.00   850.62     0  02:31           0        1.22      -0.073
  YS02001664           JUNCTION    799.08   799.08     0  02:35        1.22        1.22      -0.001
  YS02001745           JUNCTION    493.45   493.45     0  02:35       0.742       0.742       0.167
  YS02001748           JUNCTION      0.04   500.25     0  02:35    0.000972       0.742      -0.248
  YS02001751           JUNCTION      0.01   500.98     0  02:35    0.000238       0.749       0.093
  YS02001754           JUNCTION      0.26   501.19     0  02:35     0.00562       0.762      -0.167
  YS02001757           JUNCTION      0.00  2846.26     0  02:28           0        9.58       0.028
  YS02001759           JUNCTION    686.21  1147.38     0  02:30        1.02        2.43      -0.008
  YS02001762           JUNCTION      0.00   657.61     0  02:28           0        1.41      -0.001
  YS02001765           JUNCTION      0.00   657.49     0  02:28           0        1.41       0.006
  YS02001767           JUNCTION      0.54   657.69     0  02:28      0.0116        1.41       0.017
  YS02001770           JUNCTION    990.70   990.70     0  02:35        1.56        1.61      -0.018
  YS02001774           JUNCTION      0.00   541.35     0  02:35           0       0.231       0.521
  YS02001779           JUNCTION      0.01   542.57     0  02:35    0.000108       0.186      -0.635
  YS02001783           JUNCTION      0.00  1160.98     0  02:34           0        3.74       0.004
  YS02001784           JUNCTION      1.06  1162.17     0  02:34      0.0229        3.77       0.006
  YS02001786           JUNCTION      0.06  1162.03     0  02:32     0.00122        3.77       0.007
  YS02001788           JUNCTION      0.07  1162.22     0  02:32     0.00153        3.77       0.006
  YS02001790           JUNCTION      0.15  1195.32     0  02:41     0.00335        3.77      -0.038
  YS02001791           JUNCTION      0.00  1351.24     0  02:41           0        3.77      -0.006
  YS02001793           JUNCTION      0.00  1408.08     0  02:41           0        3.77      -0.074
  YS02001882           JUNCTION      0.00    40.15     0  02:17           0      0.0136       5.040
  YS02001884           JUNCTION      0.00    71.10     0  02:17           0      0.0498       5.493
  YS02001887           JUNCTION    719.38   720.06     0  02:35        1.07        1.11       0.429
  YS02001890           JUNCTION      0.00   719.07     0  02:35           0        1.06       0.500
  YS02001895           JUNCTION      0.00   518.60     0  02:35           0        1.01       0.150
  YS02001898           JUNCTION      0.00   518.41     0  02:35           0        1.01       0.050
  YS02001901           JUNCTION      0.00   518.27     0  02:35           0        1.01       0.339
  YS02001904           JUNCTION      0.00   518.02     0  02:35           0        1.01       0.302
  YS02001907           JUNCTION      0.00  1856.95     0  02:35           0        3.34       0.530
  YS02001910           JUNCTION      0.00  1339.58     0  02:35           0        2.33       0.316
  YS02001915           JUNCTION    897.47  1338.89     0  02:35        1.49        2.35       0.076
  YS02001918           JUNCTION      0.00   464.28     0  02:35           0       0.872       0.035
  YS02001920           JUNCTION      2.87   464.32     0  02:35       0.062       0.863       0.095
  YS02001923           JUNCTION      0.04   457.71     0  02:35    0.000814       0.792      -0.002
  YS02001926           JUNCTION      0.05   456.02     0  02:35     0.00113       0.784       0.034
  YS02001929           JUNCTION    444.11   444.11     0  02:35       0.782       0.782      -0.011
  YS02006553           JUNCTION      0.00   804.27     0  02:46           0        2.23       0.545
  YS02006556           JUNCTION      0.00   804.10     0  02:46           0        2.23       0.374
  YS02006558           JUNCTION   1008.52  1162.32     0  02:34        1.56        3.77       0.090
  YS02006561           JUNCTION      0.00  1161.10     0  02:34           0        3.74      -0.001
  YS02163301           JUNCTION      0.00   900.83     0  02:21           0        3.12       0.060
  YS02163601           JUNCTION      0.11  1263.55     0  02:22     0.00238        4.25       0.127
  YS02164001           JUNCTION      0.00  1263.33     0  02:22           0        4.25       0.064
  YSB1154              JUNCTION    408.97   408.97     0  02:35       0.647       0.648       0.241
  YSB1171              JUNCTION      0.00   982.31     0  02:35           0        1.22       0.519
  YSB1174              JUNCTION    337.69   337.69     0  02:35       0.493       0.494       0.280
  YSB6556              JUNCTION      0.00   408.88     0  02:35           0       0.649       0.214
  CC-1                 OUTFALL       0.00   683.00     0  02:30           0        3.69       0.000
  CC-2                 OUTFALL       0.00   683.00     0  02:30           0        3.69       0.000
  JK-1                 OUTFALL       0.00  1000.00     0  01:50           0        1.79       0.000
  JK-2                 OUTFALL       0.00  1000.00     0  01:50           0        1.79       0.000
  WSC                  OUTFALL       0.00  1513.30     0  02:37           0        13.2       0.000
  CC-storage           STORAGE       0.00  2845.92     0  02:28           0        11.8      -0.336
  JK-storage           STORAGE       0.00  1695.08     0  02:41           0        3.93     -23.779
  XR-storage           STORAGE     200.00   200.00     0  00:00        4.32        4.92       0.001
  
  
  **********************
  Node Surcharge Summary
  **********************
  
  Surcharging occurs when water rises above the top of the highest conduit.
  ---------------------------------------------------------------------
                                               Max. Height   Min. Depth
                                   Hours       Above Crown    Below Rim
  Node                 Type      Surcharged         Meters       Meters
  ---------------------------------------------------------------------
  HS02004478           JUNCTION        0.45          0.666        0.274
  HS02004479           JUNCTION        0.58          0.897        0.153
  HS02004480           JUNCTION        0.61          0.959        0.141
  HS02004770           JUNCTION        0.51          0.720        0.000
  HS02004777           JUNCTION        0.52          0.780        0.000
  HS02004785           JUNCTION        0.47          0.790        0.000
  HS02004788           JUNCTION        0.46          0.717        0.003
  HS02004792           JUNCTION        0.58          0.900        0.000
  HS02004799           JUNCTION        0.71          1.060        0.000
  HS02004802           JUNCTION        0.62          1.091        0.119
  HS02004807           JUNCTION        0.61          1.220        0.000
  HS02004817           JUNCTION        1.12          1.679        0.061
  HS02004824           JUNCTION        0.47          1.269        0.041
  HS02004830           JUNCTION        0.44          1.295        0.035
  HS02004837           JUNCTION        0.41          1.234        0.106
  HS02004842           JUNCTION        0.54          1.520        0.000
  HS02004848           JUNCTION        0.38          1.200        0.170
  HS02004852           JUNCTION        0.39          1.225        0.195
  HS02004856           JUNCTION        0.39          1.165        0.135
  HS02004862           JUNCTION        0.42          1.218        0.082
  HS02004870           JUNCTION        0.44          1.200        0.200
  HS02004876           JUNCTION        0.50          1.282        0.278
  HS02004881           JUNCTION        0.48          1.035        0.415
  HS02004901           JUNCTION        0.52          0.720        0.000
  WS02004401           JUNCTION        1.54          0.872        0.788
  WS02004402           JUNCTION        1.58          0.806        0.934
  WS02004403           JUNCTION        1.59          0.735        1.295
  WS02004404           JUNCTION        1.82          0.739        2.041
  WS02004405           JUNCTION        1.76          0.688        2.112
  WS02004406           JUNCTION        1.72          0.576        1.874
  WS02004409           JUNCTION        0.99          0.392        1.968
  WS02004410           JUNCTION        0.90          0.301        2.239
  WS02004411           JUNCTION        0.81          0.209        2.321
  WS02004412           JUNCTION        0.73          0.107        2.203
  WS02004413           JUNCTION        1.29          0.146        2.054
  WS02006109           JUNCTION        2.61          1.820        0.000
  WS02006110           JUNCTION        2.20          1.485        0.365
  WS02006111           JUNCTION        1.26          0.940        0.930
  WS02006112           JUNCTION        2.43          1.680        0.000
  WS02006113           JUNCTION        1.29          1.030        0.900
  WS02006115           JUNCTION        1.42          0.954        1.296
  WS02006116           JUNCTION        1.44          0.897        1.393
  WS02006228           JUNCTION        2.60          2.198        0.002
  WS02006229           JUNCTION        0.84          1.043        0.027
  WS02006230           JUNCTION        1.89          1.570        0.000
  WS02006231           JUNCTION        2.17          1.479        0.051
  WS02006232           JUNCTION        2.47          1.480        0.000
  WS02006234           JUNCTION        2.34          1.240        0.000
  WS02006235           JUNCTION        2.38          1.264        0.026
  WS02006238           JUNCTION        2.40          1.269        0.161
  WS02006239           JUNCTION        2.32          1.121        0.169
  WS02006240           JUNCTION        2.29          1.008        0.382
  WS02006242           JUNCTION        2.31          0.820        0.000
  WS02006243           JUNCTION        2.24          0.704        0.066
  WS02006245           JUNCTION        2.22          0.624        0.226
  WS02006247           JUNCTION        2.22          0.567        0.193
  WS02006248           JUNCTION        2.20          0.380        0.000
  WS02006249           JUNCTION        2.20          0.390        0.000
  WS02006251           JUNCTION        2.15          1.105        0.075
  WS02006252           JUNCTION        2.16          1.100        0.000
  WS02006253           JUNCTION        2.16          1.979        0.501
  WS02006256           JUNCTION        4.70          2.050        0.000
  WS02006280           JUNCTION        0.72          0.695        0.085
  WS02006284           JUNCTION        0.64          0.663        0.137
  WS02006287           JUNCTION        0.54          0.737        0.153
  YS02001580           JUNCTION        0.55          0.450        0.000
  YS02001583           JUNCTION        0.56          0.500        0.000
  YS02001586           JUNCTION        0.69          0.510        0.000
  YS02001590           JUNCTION        0.76          0.723        0.027
  YS02001593           JUNCTION        0.76          0.673        0.167
  YS02001596           JUNCTION        0.87          0.926        0.144
  YS02001600           JUNCTION        1.01          1.183        0.007
  YS02001601           JUNCTION        1.36          1.440        0.000
  YS02001602           JUNCTION        1.25          1.270        0.000
  YS02001605           JUNCTION        1.20          1.176        0.004
  YS02001607           JUNCTION        0.76          0.646        0.034
  YS02001610           JUNCTION        0.78          0.680        0.000
  YS02001613           JUNCTION        0.75          0.658        0.042
  YS02001616           JUNCTION        0.72          0.600        0.010
  YS02001619           JUNCTION        0.70          0.590        0.020
  YS02001622           JUNCTION        0.70          0.564        0.056
  YS02001625           JUNCTION        0.87          0.780        0.000
  YS02001629           JUNCTION        0.65          0.470        0.000
  YS02001633           JUNCTION        0.90          0.993        0.067
  YS02001641           JUNCTION        0.86          0.959        0.141
  YS02001644           JUNCTION        0.82          0.920        0.000
  YS02001647           JUNCTION        0.64          0.772        0.128
  YS02001649           JUNCTION        0.76          1.013        0.037
  YS02001652           JUNCTION        0.60          1.029        0.101
  YS02001655           JUNCTION        0.47          0.992        0.208
  YS02001658           JUNCTION        0.27          1.141        0.159
  YS02001661           JUNCTION        0.03          0.300        1.090
  YS02001748           JUNCTION        0.22          0.491        0.699
  YS02001751           JUNCTION        0.37          0.695        0.505
  YS02001754           JUNCTION        0.54          0.758        0.392
  YS02001757           JUNCTION        0.83          1.052        0.158
  YS02001759           JUNCTION        0.75          1.013        0.197
  YS02001762           JUNCTION        0.72          0.982        0.168
  YS02001765           JUNCTION        0.69          0.945        0.155
  YS02001767           JUNCTION        0.66          0.915        0.115
  YS02001770           JUNCTION        0.64          0.890        0.030
  YS02001774           JUNCTION        0.71          0.978        0.072
  YS02001779           JUNCTION        0.52          0.680        0.000
  YS02001783           JUNCTION        0.60          1.175        0.425
  YS02001784           JUNCTION        0.59          1.194        0.296
  YS02001786           JUNCTION        0.48          1.178        0.252
  YS02001788           JUNCTION        0.18          1.289        0.191
  YS02001790           JUNCTION        0.26          1.157        0.000
  YS02001791           JUNCTION        0.25          1.516        0.404
  YS02001793           JUNCTION        0.31          0.955        1.645
  YS02001882           JUNCTION        0.47          0.638        0.192
  YS02001884           JUNCTION        0.48          0.678        0.192
  YS02001887           JUNCTION        0.51          0.766        0.184
  YS02001890           JUNCTION        0.52          0.760        0.000
  YS02001895           JUNCTION        0.45          0.568        0.182
  YS02001898           JUNCTION        0.44          0.532        0.208
  YS02001901           JUNCTION        0.50          0.677        0.193
  YS02001904           JUNCTION        0.48          0.637        0.213
  YS02001907           JUNCTION        0.75          0.950        0.000
  YS02001910           JUNCTION        0.55          0.871        0.229
  YS02001915           JUNCTION        0.46          0.756        0.244
  YS02001918           JUNCTION        0.37          0.522        0.288
  YS02001920           JUNCTION        0.39          0.635        0.505
  YS02001923           JUNCTION        0.06          0.216        0.604
  YS02001926           JUNCTION        0.08          0.247        0.653
  YS02001929           JUNCTION        0.01          0.003        0.777
  YS02006553           JUNCTION        0.77          1.069        0.121
  YS02006556           JUNCTION        0.64          1.131        0.219
  YS02006558           JUNCTION        0.63          1.157        0.243
  YS02006561           JUNCTION        0.34          0.671        0.479
  YS02163301           JUNCTION        0.88          0.918        0.112
  YS02163601           JUNCTION        0.94          1.043        0.037
  YS02164001           JUNCTION        0.85          0.964        0.136
  YSB1154              JUNCTION        0.82          1.211        0.189
  YSB1171              JUNCTION        0.82          1.100        0.000
  YSB1174              JUNCTION        0.75          1.097        0.153
  YSB6556              JUNCTION        0.68          1.040        0.060
  
  
  *********************
  Node Flooding Summary
  *********************
  
  Flooding refers to all water that overflows a node, whether it ponds or not.
  --------------------------------------------------------------------------
                                                             Total   Maximum
                                 Maximum   Time of Max       Flood    Ponded
                        Hours       Rate    Occurrence      Volume     Depth
  Node                 Flooded       LPS   days hr:min    10^6 ltr    Meters
  --------------------------------------------------------------------------
  HS02004770              0.37   1075.73      0  02:35       0.597     0.000
  HS02004777              0.01     50.61      0  02:21       0.000     0.000
  HS02004785              0.01     62.35      0  02:21       0.000     0.000
  HS02004792              0.34   1621.14      0  02:35       1.034     0.000
  HS02004799              0.18    190.95      0  02:35       0.068     0.000
  HS02004807              0.06    259.70      0  02:35       0.029     0.000
  HS02004842              0.01     22.88      0  02:24       0.000     0.000
  HS02004901              0.42    636.89      0  02:35       0.647     0.000
  WS02006109              0.39    282.30      0  02:35       0.236     0.000
  WS02006112              0.01   1153.65      0  00:00       0.035     0.000
  WS02006230              0.65    573.02      0  02:32       0.891     0.000
  WS02006232              0.15      0.70      0  02:37       0.000     0.000
  WS02006234              0.69    128.50      0  02:27       0.214     0.000
  WS02006242              0.78    137.38      0  02:24       0.337     0.000
  WS02006248              1.15    339.35      0  02:17       1.125     0.000
  WS02006249              1.95   1300.65      0  02:35       3.831     0.000
  WS02006252              0.44    667.72      0  02:35       0.516     0.000
  WS02006256              0.92    293.23      0  02:40       0.467     0.000
  YS02001580              0.01     23.22      0  02:19       0.000     0.000
  YS02001583              0.01     73.50      0  02:19       0.000     0.000
  YS02001586              0.42    406.64      0  02:35       0.275     0.000
  YS02001601              0.62   1161.04      0  02:35       1.193     0.000
  YS02001602              0.54     61.97      0  02:36       0.111     0.000
  YS02001610              0.48    691.31      0  02:35       0.561     0.000
  YS02001625              0.46   1330.95      0  02:35       1.196     0.000
  YS02001629              0.04     15.90      0  02:25       0.001     0.000
  YS02001644              0.24   1058.29      0  02:35       0.414     0.000
  YS02001779              0.19    542.45      0  02:35       0.169     0.000
  YS02001790              0.01    261.30      0  02:57       0.000     0.000
  YS02001890              0.16    202.84      0  02:34       0.051     0.000
  YS02001907              0.32   1815.44      0  02:35       1.100     0.000
  YSB1171                 0.28    981.88      0  02:35       0.503     0.000
  JK-storage              0.21   1081.20      0  02:35       0.545     0.000
  
  
  **********************
  Storage Volume Summary
  **********************
  
  --------------------------------------------------------------------------------------------------
                         Average     Avg  Evap Exfil       Maximum     Max    Time of Max    Maximum
                          Volume    Pcnt  Pcnt  Pcnt        Volume    Pcnt     Occurrence    Outflow
  Storage Unit           1000 m3    Full  Loss  Loss       1000 m3    Full    days hr:min        LPS
  --------------------------------------------------------------------------------------------------
  CC-storage               2.340      37     0     0         5.265      82       0  02:49    1766.00
  JK-storage               0.130      45     0     0         0.291     100       0  02:14    2300.00
  XR-storage               0.908      63     0     0         1.039      72       0  06:00     190.00
  
  
  ***********************
  Outfall Loading Summary
  ***********************
  
  -----------------------------------------------------------
                         Flow       Avg       Max       Total
                         Freq      Flow      Flow      Volume
  Outfall Node           Pcnt       LPS       LPS    10^6 ltr
  -----------------------------------------------------------
  CC-1                  24.78    683.00    683.00       3.694
  CC-2                  24.78    683.00    683.00       3.694
  JK-1                  12.41    785.10   1000.00       1.787
  JK-2                  12.41    785.10   1000.00       1.787
  WSC                   99.99    656.02   1513.30      13.232
  -----------------------------------------------------------
  System                34.87   3592.22   1513.30      24.195
  
  
  ********************
  Link Flow Summary
  ********************
  
  -----------------------------------------------------------------------------
                                 Maximum  Time of Max   Maximum    Max/    Max/
                                  |Flow|   Occurrence   |Veloc|    Full    Full
  Link                 Type          LPS  days hr:min     m/sec    Flow   Depth
  -----------------------------------------------------------------------------
  1                    CONDUIT   1513.30     0  02:37      3.70    0.53    0.52
  HS02004478WS02006287 CONDUIT   2303.57     0  02:32      2.60    0.64    1.00
  HS02004479HS02004480 CONDUIT    381.75     0  02:25      0.55    0.37    1.00
  HS02004480HS02004478 CONDUIT   2054.23     0  02:24      2.93    8.65    1.00
  HS02004770HS02004777 CONDUIT    706.90     0  02:21      1.01    1.29    1.00
  HS02004777HS02004785 CONDUIT    713.17     0  02:20      1.09    0.88    1.00
  HS02004785HS02004788 CONDUIT    606.02     0  02:22      1.36    4.57    1.00
  HS02004788HS02004792 CONDUIT    827.50     0  02:22      1.45    0.55    1.00
  HS02004792HS02004799 CONDUIT   1569.36     0  02:22      2.24    0.96    1.00
  HS02004799HS02004480 CONDUIT   1716.36     0  02:22      2.45    2.17    1.00
  HS02004802HS02004478 CONDUIT   1233.52     0  02:35      1.76    1.09    1.00
  HS02004807HS02004802 CONDUIT   1232.76     0  02:35      1.76    2.35    1.00
  HS02004817HS02004807 CONDUIT   1059.56     0  02:35      1.51    0.63    1.00
  HS02004817HS02004824 CONDUIT   1058.71     0  02:35      1.51    0.48    1.00
  HS02004824HS02004830 CONDUIT    565.83     0  02:22      0.81    0.74    1.00
  HS02004830HS02004837 CONDUIT    583.23     0  02:22      0.91    0.58    1.00
  HS02004837HS02004842 CONDUIT    744.17     0  02:24      1.06    0.44    1.00
  HS02004842HS02004848 CONDUIT    744.90     0  02:24      1.16    0.43    1.00
  HS02004848HS02004852 CONDUIT    957.86     0  02:24      1.55    1.08    1.00
  HS02004852HS02004856 CONDUIT    935.03     0  02:23      1.44    1.07    1.00
  HS02004856HS02004862 CONDUIT   1002.63     0  02:23      1.65    1.00    1.00
  HS02004862HS02004870 CONDUIT    993.04     0  02:35      1.68    1.07    1.00
  HS02004870HS02004876 CONDUIT   1230.91     0  02:35      1.76    0.82    1.00
  HS02004876HS02004881 CONDUIT   1468.51     0  02:35      2.31   15.62    1.00
  HS02004881HS02006253 CONDUIT   1596.48     0  02:35      2.28    0.31    1.00
  HS02004901HS02004770 CONDUIT    265.79     0  02:43      0.38    1.00    1.00
  WS02001211WS02001212 CONDUIT    213.06     0  03:03      0.54    0.16    0.69
  WS02001212WS02001213 CONDUIT    218.40     0  03:03      1.04    0.34    0.56
  WS02001213WS02003059 CONDUIT    223.98     0  03:03      0.47    0.37    0.90
  WS02003059WS02003060 CONDUIT    230.18     0  03:02      0.67    0.15    0.81
  WS02003060WS02003069 CONDUIT   1512.12     0  02:36      2.09    0.59    0.61
  WS02003066WSF200     CONDUIT   1307.01     0  02:35      3.25    0.22    0.39
  WS02003067WS02003066 CONDUIT   1306.95     0  02:35      2.00    0.42    0.56
  WS02003069WS02003072 CONDUIT   1511.97     0  02:36      1.90    0.73    0.66
  WS02003072WS02003073 CONDUIT   1511.80     0  02:37      2.06    3.27    0.62
  WS02004138WS02004139 CONDUIT    191.01     0  00:29      2.14    0.04    0.42
  WS02004139WS02001211 CONDUIT    197.87     0  03:07      0.53    0.25    0.61
  WS02004401WS02004402 CONDUIT   1308.65     0  02:35      2.07    1.57    1.00
  WS02004402WS02004403 CONDUIT   1308.10     0  02:35      1.84    1.88    1.00
  WS02004403WS02004404 CONDUIT   1309.42     0  02:35      1.67    0.95    1.00
  WS02004404WS02004405 CONDUIT   1308.87     0  02:35      1.85   12.82    1.00
  WS02004405WS02004406 CONDUIT   1308.68     0  02:35      1.73    2.58    1.00
  WS02004406WS02004407 CONDUIT   1308.44     0  02:35      1.69    0.58    0.97
  WS02004407WS02004409 CONDUIT   1306.87     0  02:35      1.69    0.46    0.97
  WS02004409WS02004410 CONDUIT   1307.18     0  02:35      1.66    1.69    1.00
  WS02004410WS02004411 CONDUIT   1306.77     0  02:35      1.66    1.78    1.00
  WS02004411WS02004412 CONDUIT   1307.00     0  02:35      1.66    1.86    1.00
  WS02004412WS02004413 CONDUIT   1306.86     0  02:35      1.66    0.88    1.00
  WS02004413WS02003067 CONDUIT   1306.87     0  02:35      2.02    0.56    0.77
  WS02006109WS02006110 CONDUIT   1306.78     0  00:00      3.15    2.51    1.00
  WS02006110WS02006113 CONDUIT   1125.27     0  02:45      2.24    1.02    1.00
  WS02006111WS02006112 CONDUIT   2307.30     0  00:00      9.18    1.10    1.00
  WS02006112WS02006115 CONDUIT   2152.75     0  00:00      2.85    1.27    1.00
  WS02006113WS02006111 CONDUIT   1176.04     0  00:00      2.60    1.41    1.00
  WS02006115WS02006116 CONDUIT   1308.36     0  02:35      1.81    1.68    1.00
  WS02006116WS02004401 CONDUIT   1308.57     0  02:35      2.21    1.80    1.00
  WS02006228WS02006109 CONDUIT   1287.63     0  02:32      2.56    5.63    1.00
  WS02006229WS02006228 CONDUIT   1288.03     0  02:32      2.56    4.27    1.00
  WS02006230WS02006229 CONDUIT   1015.55     0  02:32      2.64   22.60    1.00
  WS02006231WS02006230 CONDUIT    536.18     0  04:00      1.42    8.13    1.00
  WS02006232WS02006231 CONDUIT    545.62     0  04:00      1.42    1.14    1.00
  WS02006234WS02006232 CONDUIT    545.65     0  04:00      1.42    1.10    1.00
  WS02006235WS02006234 CONDUIT    538.24     0  04:00      1.40    5.68    1.00
  WS02006238WS02006235 CONDUIT    419.34     0  03:48      1.22    0.94    1.00
  WS02006239WS02006238 CONDUIT    419.23     0  03:48      1.09    1.34    1.00
  WS02006240WS02006239 CONDUIT    419.19     0  03:48      1.09    1.32    1.00
  WS02006242WS02006240 CONDUIT    419.13     0  03:48      1.09    1.66    1.00
  WS02006243WS02006242 CONDUIT    419.10     0  03:48      1.13    0.90    1.00
  WS02006245WS02006243 CONDUIT    419.06     0  03:48      1.13    1.24    1.00
  WS02006247WS02006245 CONDUIT    419.01     0  03:48      1.09    3.32    1.00
  WS02006248WS02006247 CONDUIT    418.95     0  03:48      1.12    0.91    1.00
  WS02006249WS02006248 CONDUIT    418.87     0  03:48      1.09    2.29    1.00
  WS02006251WS02006249 CONDUIT   1361.81     0  02:35      3.54    3.93    1.00
  WS02006252WS02006251 CONDUIT    410.64     0  02:20      3.67    1.51    1.00
  WS02006253WS02006251 CONDUIT   1628.96     0  02:35      4.23    4.88    1.00
  WS02006256WS02006235 CONDUIT    246.10     0  04:15      3.48    2.60    1.00
  WS02006280WS02006229 CONDUIT   2304.67     0  02:32      3.89    0.49    1.00
  WS02006284WS02006280 CONDUIT   2303.07     0  02:32      3.01    0.96    1.00
  WS02006287WS02006284 CONDUIT   2302.66     0  02:36      2.93    1.07    1.00
  WSF200WS02003060     CONDUIT   1306.80     0  02:35      2.29    0.29    0.50
  YS02001580YS02001583 CONDUIT     70.18     0  02:19      0.53    0.27    1.00
  YS02001583YS02001586 CONDUIT    116.37     0  02:18      0.51    0.18    1.00
  YS02001586YS02001590 CONDUIT    318.01     0  02:34      1.25    0.56    1.00
  YS02001590YS02001593 CONDUIT    318.19     0  02:37      1.13    2.00    1.00
  YS02001593YS02001596 CONDUIT    318.24     0  02:37      1.71    0.50    1.00
  YS02001596YS02001600 CONDUIT    318.25     0  02:36      1.26    0.62    1.00
  YS02001600YS02001601 CONDUIT    318.16     0  02:34      1.13    0.55    1.00
  YS02001601YS02001602 CONDUIT    491.89     0  02:18      1.74    1.78    1.00
  YS02001602YS02001605 CONDUIT    492.79     0  02:18      1.74   10.43    1.00
  YS02001605YS02001607 CONDUIT    493.43     0  02:18      1.75    2.71    1.00
  YS02001607YS02001610 CONDUIT    492.18     0  02:18      0.63    0.47    1.00
  YS02001610YS02001613 CONDUIT    492.92     0  02:17      0.63    0.57    1.00
  YS02001613YS02001616 CONDUIT    491.83     0  02:17      0.63    0.42    1.00
  YS02001616YS02001619 CONDUIT    487.15     0  02:18      0.66    0.85    1.00
  YS02001619YS02001622 CONDUIT    929.83     0  02:35      1.18    1.37    1.00
  YS02001622YS02001625 CONDUIT    930.89     0  02:35      1.19    0.50    1.00
  YS02001625YS02001629 CONDUIT    901.97     0  02:21      1.15    0.43    1.00
  YS02001629YS02163301 CONDUIT    900.83     0  02:21      1.15    1.11    1.00
  YS02001633YS02163601 CONDUIT   1263.44     0  02:22      1.61    1.33    1.00
  YS02001641YS02001644 CONDUIT   1262.29     0  02:22      1.61    4.08    1.00
  YS02001644YS02001647 CONDUIT   1592.53     0  02:22      2.09    0.94    1.00
  YS02001647YS02001649 CONDUIT   1598.33     0  02:22      2.22    0.84    1.00
  YS02001649YS02001757 CONDUIT   1740.28     0  02:24      2.27    1.06    1.00
  YS02001652YS02001649 CONDUIT    809.81     0  02:35      1.03    0.40    1.00
  YS02001655YS02001652 CONDUIT    809.24     0  02:35      1.24    0.39    1.00
  YS02001658YS02001655 CONDUIT    808.92     0  02:35      1.82    0.34    1.00
  YS02001661YS02001658 CONDUIT    809.52     0  02:35      2.14    0.32    1.00
  YS02001664YS02001661 CONDUIT    850.62     0  02:31      2.02    0.27    0.75
  YS02001745YS02001748 CONDUIT    500.20     0  02:35      1.98    0.19    0.91
  YS02001748YS02001751 CONDUIT    500.97     0  02:35      1.56    0.25    1.00
  YS02001751YS02001754 CONDUIT    500.93     0  02:35      1.40    0.24    1.00
  YS02001754YS02001757 CONDUIT    500.96     0  02:35      0.64    0.20    1.00
  YS02001757CaochengTiaoxuchi CONDUIT   2845.92     0  02:28      3.62    1.23    1.00
  YS02001759YS02001757 CONDUIT   1146.66     0  02:30      1.46    0.81    1.00
  YS02001762YS02001759 CONDUIT    657.49     0  02:28      0.84    0.76    1.00
  YS02001765YS02001762 CONDUIT    657.61     0  02:28      0.84    0.62    1.00
  YS02001767YS02001765 CONDUIT    657.49     0  02:28      0.84    0.83    1.00
  YS02001770YS02001767 CONDUIT    657.16     0  02:28      0.84    2.60    1.00
  YS02001774YS02001770 CONDUIT    541.35     0  02:35      0.69    0.35    1.00
  YS02001779YS02001774 CONDUIT    542.57     0  02:35      0.69    0.27    1.00
  YS02001783YS02001784 CONDUIT   1161.11     0  02:34      2.31    1.60    1.00
  YS02001784YS02001785 CONDUIT   1161.97     0  02:32      2.31    2.70    1.00
  YS02001786YS02001788 CONDUIT   1162.15     0  02:32      2.48    2.24    1.00
  YS02001788YS02001790 CONDUIT   1195.17     0  02:41      2.73    0.88    1.00
  YS02001790YS02001791 CONDUIT   1351.24     0  02:41      3.44    1.47    1.00
  YS02001791YS02001793 CONDUIT   1408.08     0  02:41      6.74    0.60    1.00
  YS02001793JiankangQianchi CONDUIT   1695.08     0  02:41     24.37    0.13    1.00
  YS02001882YS02001884 CONDUIT     40.15     0  02:17      0.10    0.05    1.00
  YS02001884YS02001887 CONDUIT     71.10     0  02:17      0.10    0.09    1.00
  YS02001887YS02001890 CONDUIT    719.07     0  02:35      0.92    1.23    1.00
  YS02001890YS02001895 CONDUIT    518.60     0  02:35      0.66    0.24    1.00
  YS02001895YS02001898 CONDUIT    518.41     0  02:35      0.66    0.90    1.00
  YS02001898YS02001901 CONDUIT    518.27     0  02:35      0.66    0.33    1.00
  YS02001901YS02001904 CONDUIT    518.02     0  02:35      0.66    0.80    1.00
  YS02001904YS02001907 CONDUIT    518.14     0  02:35      0.66    0.18    1.00
  YS02001907YS02006553 CONDUIT    804.27     0  02:46      0.89    0.95    1.00
  YS02001910YS02001907 CONDUIT   1340.69     0  02:35      1.71    0.76    1.00
  YS02001915YS02001910 CONDUIT   1339.58     0  02:35      1.71    0.67    1.00
  YS02001918YS02001915 CONDUIT    464.78     0  02:35      0.59    0.26    1.00
  YS02001920YS02001918 CONDUIT    464.28     0  02:35      0.66    0.45    1.00
  YS02001923YS02001920 CONDUIT    461.45     0  02:35      0.69    0.21    1.00
  YS02001926YS02001923 CONDUIT    457.67     0  02:35      0.92    0.65    1.00
  YS02001929YS02001926 CONDUIT    455.96     0  02:35      1.05    0.22    1.00
  YS02006553YS02006556 CONDUIT    804.10     0  02:46      1.02    0.69    1.00
  YS02006556YS02006558 CONDUIT    805.41     0  02:46      1.03    0.64    1.00
  YS02006558YS02006561 CONDUIT   1161.10     0  02:34      4.11    2.57    1.00
  YS02006561YS02001783 CONDUIT   1160.98     0  02:34      2.31    0.60    1.00
  YS02163301YS02001633 CONDUIT    900.77     0  02:21      1.15    0.85    1.00
  YS02163601YS02164001 CONDUIT   1263.33     0  02:22      1.61    1.12    1.00
  YS02164001YS02001641 CONDUIT   1262.07     0  02:22      1.61    1.72    1.00
  YSB1154YSB6556       CONDUIT    408.88     0  02:35      1.06    0.74    1.00
  YSB1171HS02004479    CONDUIT    381.90     0  02:25      0.76    0.25    1.00
  YSB1174YSB1171       CONDUIT    337.64     0  02:35      0.88    0.52    1.00
  YSB6556YSB1171       CONDUIT    409.53     0  02:35      1.06    0.42    1.00
  CC-R1                PUMP       683.00     0  02:30              1.00
  CC-R2                PUMP       683.00     0  02:30              1.00
  CC-S1                PUMP       200.00     0  00:40              1.00
  CC-S2                PUMP       200.00     0  02:20              1.00
  JK-R1                PUMP      1000.00     0  01:50              1.00
  JK-R2                PUMP      1000.00     0  01:50              1.00
  JK-S                 PUMP       300.00     0  01:50              1.00
  XR-1                 PUMP        95.00     0  00:10              1.00
  XR-2                 PUMP        95.00     0  00:29              1.00
  XR-3                 PUMP         0.00     0  00:00              0.00
  XR-4                 PUMP         0.00     0  00:00              0.00
  
  
  ***************************
  Flow Classification Summary
  ***************************
  
  -------------------------------------------------------------------------------------
                      Adjusted    ---------- Fraction of Time in Flow Class ---------- 
                       /Actual         Up    Down  Sub   Sup   Up    Down  Norm  Inlet 
  Conduit               Length    Dry  Dry   Dry   Crit  Crit  Crit  Crit  Ltd   Ctrl  
  -------------------------------------------------------------------------------------
  1                       1.00   0.00  0.00  0.00  0.00  1.00  0.00  0.00  0.41  0.00
  HS02004478WS02006287    1.00   0.27  0.00  0.00  0.38  0.34  0.00  0.00  0.45  0.00
  HS02004479HS02004480    1.00   0.01  0.00  0.00  0.99  0.00  0.00  0.00  0.15  0.00
  HS02004480HS02004478    1.00   0.17  0.00  0.00  0.28  0.00  0.00  0.55  0.00  0.00
  HS02004770HS02004777    1.00   0.00  0.16  0.00  0.84  0.00  0.00  0.00  0.04  0.00
  HS02004777HS02004785    1.00   0.00  0.00  0.00  1.00  0.00  0.00  0.00  0.17  0.00
  HS02004785HS02004788    1.00   0.00  0.00  0.00  1.00  0.00  0.00  0.00  0.00  0.00
  HS02004788HS02004792    1.00   0.00  0.00  0.00  1.00  0.00  0.00  0.00  0.88  0.00
  HS02004792HS02004799    1.00   0.00  0.00  0.00  1.00  0.00  0.00  0.00  0.83  0.00
  HS02004799HS02004480    1.00   0.00  0.01  0.00  0.74  0.00  0.25  0.00  0.00  0.00
  HS02004802HS02004478    1.00   0.17  0.02  0.00  0.81  0.00  0.00  0.00  0.03  0.00
  HS02004807HS02004802    1.00   0.16  0.00  0.00  0.78  0.00  0.00  0.06  0.00  0.00
  HS02004817HS02004807    1.00   0.00  0.16  0.00  0.84  0.00  0.00  0.00  0.01  0.00
  HS02004817HS02004824    1.00   0.00  0.00  0.00  1.00  0.00  0.00  0.00  0.77  0.00
  HS02004824HS02004830    1.00   0.00  0.00  0.00  1.00  0.00  0.00  0.00  0.02  0.00
  HS02004830HS02004837    1.00   0.00  0.00  0.00  1.00  0.00  0.00  0.00  0.85  0.00
  HS02004837HS02004842    1.00   0.00  0.00  0.00  1.00  0.00  0.00  0.00  0.14  0.00
  HS02004842HS02004848    1.00   0.00  0.16  0.00  0.84  0.00  0.00  0.00  0.40  0.00
  HS02004848HS02004852    1.00   0.16  0.00  0.00  0.84  0.00  0.00  0.00  0.58  0.00
  HS02004852HS02004856    1.00   0.16  0.04  0.00  0.81  0.00  0.00  0.00  0.57  0.00
  HS02004856HS02004862    1.00   0.00  0.30  0.00  0.70  0.00  0.00  0.00  0.65  0.00
  HS02004862HS02004870    1.00   0.00  0.00  0.00  1.00  0.00  0.00  0.00  0.05  0.00
  HS02004870HS02004876    1.00   0.00  0.00  0.00  1.00  0.00  0.00  0.00  0.82  0.00
  HS02004876HS02004881    1.00   0.00  0.00  0.00  0.76  0.24  0.00  0.00  0.00  0.00
  HS02004881HS02006253    1.00   0.02  0.00  0.00  0.82  0.00  0.00  0.16  0.46  0.00
  HS02004901HS02004770    1.00   0.16  0.00  0.00  0.84  0.00  0.00  0.00  0.00  0.00
  WS02001211WS02001212    1.00   0.00  0.01  0.00  0.99  0.00  0.00  0.00  0.00  0.00
  WS02001212WS02001213    1.00   0.01  0.00  0.00  0.53  0.00  0.46  0.00  0.00  0.00
  WS02001213WS02003059    1.00   0.00  0.00  0.00  1.00  0.00  0.00  0.00  0.00  0.00
  WS02003059WS02003060    1.00   0.00  0.00  0.00  1.00  0.00  0.00  0.00  0.04  0.00
  WS02003060WS02003069    1.00   0.00  0.00  0.00  0.99  0.01  0.00  0.00  0.33  0.00
  WS02003066WSF200        1.00   0.12  0.00  0.00  0.00  0.88  0.00  0.00  0.42  0.00
  WS02003067WS02003066    1.00   0.03  0.07  0.00  0.90  0.00  0.00  0.00  0.00  0.00
  WS02003069WS02003072    1.00   0.00  0.00  0.00  1.00  0.00  0.00  0.00  0.41  0.00
  WS02003072WS02003073    1.00   0.00  0.00  0.00  0.00  0.00  0.00  1.00  0.00  0.00
  WS02004138WS02004139    1.00   0.01  0.00  0.00  0.99  0.00  0.00  0.00  0.97  0.00
  WS02004139WS02001211    1.00   0.00  0.00  0.00  1.00  0.00  0.00  0.00  0.01  0.00
  WS02004401WS02004402    1.00   0.00  0.00  0.00  1.00  0.00  0.00  0.00  0.00  0.00
  WS02004402WS02004403    1.00   0.00  0.00  0.00  1.00  0.00  0.00  0.00  0.00  0.00
  WS02004403WS02004404    1.00   0.00  0.00  0.00  1.00  0.00  0.00  0.00  0.00  0.00
  WS02004404WS02004405    1.00   0.00  0.00  0.00  1.00  0.00  0.00  0.00  0.00  0.00
  WS02004405WS02004406    1.00   0.00  0.00  0.00  1.00  0.00  0.00  0.00  0.00  0.00
  WS02004406WS02004407    1.00   0.00  0.00  0.00  1.00  0.00  0.00  0.00  0.01  0.00
  WS02004407WS02004409    1.00   0.00  0.00  0.00  1.00  0.00  0.00  0.00  0.82  0.00
  WS02004409WS02004410    1.00   0.00  0.00  0.00  1.00  0.00  0.00  0.00  0.05  0.00
  WS02004410WS02004411    1.00   0.00  0.00  0.00  1.00  0.00  0.00  0.00  0.03  0.00
  WS02004411WS02004412    1.00   0.00  0.00  0.00  1.00  0.00  0.00  0.00  0.01  0.00
  WS02004412WS02004413    1.00   0.00  0.00  0.00  1.00  0.00  0.00  0.00  0.02  0.00
  WS02004413WS02003067    1.00   0.00  0.02  0.00  0.00  0.00  0.97  0.00  0.00  0.00
  WS02006109WS02006110    1.00   0.00  0.00  0.00  1.00  0.00  0.00  0.00  0.00  0.00
  WS02006110WS02006113    1.00   0.00  0.00  0.00  1.00  0.00  0.00  0.00  0.00  0.00
  WS02006111WS02006112    1.00   0.00  0.00  0.00  1.00  0.00  0.00  0.00  0.71  0.00
  WS02006112WS02006115    1.00   0.00  0.00  0.00  1.00  0.00  0.00  0.00  0.00  0.00
  WS02006113WS02006111    1.00   0.00  0.00  0.00  0.25  0.75  0.00  0.00  0.10  0.00
  WS02006115WS02006116    1.00   0.00  0.00  0.00  1.00  0.00  0.00  0.00  0.00  0.00
  WS02006116WS02004401    1.00   0.00  0.00  0.00  1.00  0.00  0.00  0.00  0.00  0.00
  WS02006228WS02006109    1.00   0.00  0.00  0.00  1.00  0.00  0.00  0.00  0.00  0.00
  WS02006229WS02006228    1.00   0.00  0.00  0.00  1.00  0.00  0.00  0.00  0.00  0.00
  WS02006230WS02006229    1.00   0.00  0.00  0.00  1.00  0.00  0.00  0.00  0.02  0.00
  WS02006231WS02006230    1.00   0.00  0.00  0.00  0.55  0.00  0.45  0.00  0.00  0.00
  WS02006232WS02006231    1.00   0.00  0.00  0.00  0.99  0.00  0.01  0.00  0.01  0.00
  WS02006234WS02006232    1.00   0.00  0.00  0.00  1.00  0.00  0.00  0.00  0.16  0.00
  WS02006235WS02006234    1.00   0.06  0.00  0.00  0.86  0.00  0.08  0.00  0.00  0.00
  WS02006238WS02006235    1.00   0.05  0.01  0.00  0.94  0.01  0.00  0.00  0.00  0.00
  WS02006239WS02006238    1.00   0.05  0.00  0.00  0.94  0.00  0.00  0.01  0.15  0.00
  WS02006240WS02006239    1.00   0.05  0.00  0.00  0.84  0.00  0.00  0.11  0.00  0.00
  WS02006242WS02006240    1.00   0.02  0.03  0.00  0.94  0.00  0.01  0.00  0.00  0.00
  WS02006243WS02006242    1.00   0.01  0.00  0.00  0.94  0.00  0.00  0.04  0.27  0.00
  WS02006245WS02006243    1.00   0.01  0.00  0.00  0.90  0.00  0.00  0.09  0.00  0.00
  WS02006247WS02006245    1.00   0.01  0.00  0.00  0.95  0.00  0.00  0.04  0.00  0.00
  WS02006248WS02006247    1.00   0.01  0.00  0.00  0.97  0.00  0.00  0.03  0.28  0.00
  WS02006249WS02006248    1.00   0.00  0.01  0.00  0.85  0.00  0.15  0.00  0.00  0.00
  WS02006251WS02006249    1.00   0.00  0.00  0.00  1.00  0.00  0.00  0.00  0.38  0.00
  WS02006252WS02006251    1.00   0.03  0.15  0.00  0.36  0.00  0.46  0.00  0.00  0.00
  WS02006253WS02006251    1.00   0.01  0.01  0.00  0.97  0.00  0.00  0.00  0.00  0.00
  WS02006256WS02006235    1.00   0.06  0.00  0.00  0.93  0.01  0.00  0.00  0.00  0.00
  WS02006280WS02006229    1.00   0.20  0.00  0.00  0.21  0.03  0.00  0.56  0.01  0.00
  WS02006284WS02006280    1.00   0.19  0.00  0.00  0.14  0.01  0.00  0.66  0.00  0.00
  WS02006287WS02006284    1.00   0.09  0.19  0.00  0.25  0.48  0.00  0.00  0.51  0.00
  WSF200WS02003060        1.00   0.00  0.12  0.00  0.39  0.49  0.00  0.00  0.36  0.00
  YS02001580YS02001583    1.00   0.55  0.18  0.00  0.26  0.00  0.00  0.00  0.49  0.00
  YS02001583YS02001586    1.00   0.20  0.48  0.00  0.32  0.00  0.00  0.00  0.50  0.00
  YS02001586YS02001590    1.00   0.16  0.00  0.00  0.65  0.05  0.00  0.14  0.52  0.00
  YS02001590YS02001593    1.00   0.16  0.02  0.00  0.16  0.00  0.66  0.00  0.00  0.00
  YS02001593YS02001596    1.00   0.19  0.00  0.00  0.18  0.01  0.00  0.62  0.03  0.00
  YS02001596YS02001600    1.00   0.19  0.00  0.00  0.28  0.03  0.00  0.49  0.07  0.00
  YS02001600YS02001601    1.00   0.17  0.03  0.00  0.80  0.00  0.00  0.00  0.46  0.00
  YS02001601YS02001602    1.00   0.15  0.03  0.00  0.81  0.00  0.00  0.00  0.00  0.00
  YS02001602YS02001605    1.00   0.19  0.00  0.00  0.81  0.00  0.00  0.00  0.00  0.00
  YS02001605YS02001607    1.00   0.19  0.00  0.00  0.81  0.00  0.00  0.00  0.00  0.00
  YS02001607YS02001610    1.00   0.18  0.02  0.00  0.80  0.00  0.00  0.00  0.02  0.00
  YS02001610YS02001613    1.00   0.17  0.00  0.00  0.83  0.00  0.00  0.00  0.01  0.00
  YS02001613YS02001616    1.00   0.16  0.00  0.00  0.84  0.00  0.00  0.00  0.01  0.00
  YS02001616YS02001619    1.00   0.16  0.00  0.00  0.84  0.00  0.00  0.00  0.00  0.00
  YS02001619YS02001622    1.00   0.16  0.00  0.00  0.84  0.00  0.00  0.00  0.05  0.00
  YS02001622YS02001625    1.00   0.16  0.00  0.00  0.84  0.00  0.00  0.00  0.07  0.00
  YS02001625YS02001629    1.00   0.17  0.17  0.00  0.22  0.00  0.44  0.00  0.00  0.00
  YS02001629YS02163301    1.00   0.26  0.03  0.00  0.71  0.00  0.00  0.00  0.00  0.00
  YS02001633YS02163601    1.00   0.00  0.00  0.00  1.00  0.00  0.00  0.00  0.20  0.00
  YS02001641YS02001644    1.00   0.00  0.00  0.00  1.00  0.00  0.00  0.00  0.00  0.00
  YS02001644YS02001647    1.00   0.00  0.32  0.00  0.68  0.00  0.00  0.00  0.00  0.00
  YS02001647YS02001649    1.00   0.00  0.32  0.00  0.36  0.31  0.00  0.00  0.41  0.00
  YS02001649YS02001757    1.00   0.00  0.00  0.00  0.67  0.33  0.00  0.00  0.44  0.00
  YS02001652YS02001649    1.00   0.00  0.00  0.00  0.87  0.13  0.00  0.00  0.65  0.00
  YS02001655YS02001652    1.00   0.00  0.00  0.00  0.26  0.02  0.00  0.73  0.06  0.00
  YS02001658YS02001655    1.00   0.00  0.21  0.00  0.37  0.42  0.00  0.00  0.58  0.00
  YS02001661YS02001658    1.00   0.21  0.00  0.00  0.22  0.57  0.00  0.00  0.57  0.00
  YS02001664YS02001661    1.00   0.16  0.00  0.00  0.74  0.11  0.00  0.00  0.79  0.00
  YS02001745YS02001748    1.00   0.00  0.00  0.00  0.15  0.00  0.00  0.85  0.05  0.00
  YS02001748YS02001751    1.00   0.00  0.00  0.00  0.60  0.40  0.00  0.00  0.63  0.00
  YS02001751YS02001754    1.00   0.00  0.00  0.00  0.22  0.01  0.00  0.77  0.03  0.00
  YS02001754YS02001757    1.00   0.00  0.00  0.00  1.00  0.00  0.00  0.00  0.77  0.00
  YS02001757CaochengTiaoxuchi    1.00   0.00  0.00  0.00  1.00  0.00  0.00  0.00  0.66  0.00
  YS02001759YS02001757    1.00   0.00  0.00  0.00  1.00  0.00  0.00  0.00  0.55  0.00
  YS02001762YS02001759    1.00   0.00  0.00  0.00  1.00  0.00  0.00  0.00  0.07  0.00
  YS02001765YS02001762    1.00   0.00  0.00  0.00  1.00  0.00  0.00  0.00  0.61  0.00
  YS02001767YS02001765    1.00   0.00  0.00  0.00  1.00  0.00  0.00  0.00  0.00  0.00
  YS02001770YS02001767    1.00   0.00  0.00  0.00  1.00  0.00  0.00  0.00  0.00  0.00
  YS02001774YS02001770    1.00   0.00  0.18  0.00  0.81  0.00  0.00  0.00  0.05  0.00
  YS02001779YS02001774    1.00   0.00  0.00  0.00  1.00  0.00  0.00  0.00  0.67  0.00
  YS02001783YS02001784    1.00   0.00  0.35  0.00  0.65  0.00  0.00  0.00  0.39  0.00
  YS02001784YS02001785    1.00   0.00  0.00  0.00  1.00  0.00  0.00  0.00  0.23  0.00
  YS02001786YS02001788    1.00   0.00  0.00  0.00  0.69  0.31  0.00  0.00  0.00  0.00
  YS02001788YS02001790    1.00   0.00  0.00  0.00  0.45  0.55  0.00  0.00  0.74  0.00
  YS02001790YS02001791    1.00   0.00  0.00  0.00  0.05  0.95  0.00  0.00  0.19  0.00
  YS02001791YS02001793    1.00   0.00  0.00  0.00  0.07  0.93  0.00  0.00  0.03  0.00
  YS02001793JiankangQianchi    1.00   0.00  0.00  0.00  0.87  0.13  0.00  0.00  0.81  0.00
  YS02001882YS02001884    1.00   0.24  0.03  0.00  0.72  0.00  0.00  0.00  0.00  0.00
  YS02001884YS02001887    1.00   0.02  0.10  0.00  0.88  0.00  0.00  0.00  0.00  0.00
  YS02001887YS02001890    1.00   0.00  0.00  0.00  0.99  0.00  0.01  0.00  0.00  0.00
  YS02001890YS02001895    1.00   0.00  0.29  0.00  0.71  0.00  0.00  0.00  0.00  0.00
  YS02001895YS02001898    1.00   0.30  0.01  0.00  0.64  0.00  0.05  0.00  0.00  0.00
  YS02001898YS02001901    1.00   0.30  0.01  0.00  0.69  0.00  0.00  0.00  0.02  0.00
  YS02001901YS02001904    1.00   0.30  0.00  0.00  0.70  0.00  0.00  0.00  0.00  0.00
  YS02001904YS02001907    1.00   0.00  0.29  0.00  0.70  0.00  0.00  0.00  0.00  0.00
  YS02001907YS02006553    1.00   0.00  0.01  0.00  0.99  0.00  0.00  0.00  0.00  0.00
  YS02001910YS02001907    1.00   0.00  0.00  0.00  0.99  0.00  0.00  0.01  0.16  0.00
  YS02001915YS02001910    1.00   0.00  0.00  0.00  0.92  0.08  0.00  0.00  0.23  0.00
  YS02001918YS02001915    1.00   0.00  0.00  0.00  1.00  0.00  0.00  0.00  0.68  0.00
  YS02001920YS02001918    1.00   0.00  0.00  0.00  1.00  0.00  0.00  0.00  0.01  0.00
  YS02001923YS02001920    1.00   0.00  0.00  0.00  1.00  0.00  0.00  0.00  0.90  0.00
  YS02001926YS02001923    1.00   0.00  0.02  0.00  0.08  0.00  0.90  0.00  0.00  0.00
  YS02001929YS02001926    1.00   0.00  0.16  0.00  0.84  0.00  0.00  0.00  0.76  0.00
  YS02006553YS02006556    1.00   0.00  0.00  0.00  1.00  0.00  0.00  0.00  0.04  0.00
  YS02006556YS02006558    1.00   0.00  0.00  0.00  1.00  0.00  0.00  0.00  0.00  0.00
  YS02006558YS02006561    1.00   0.35  0.00  0.00  0.08  0.57  0.00  0.00  0.25  0.00
  YS02006561YS02001783    1.00   0.35  0.00  0.00  0.13  0.53  0.00  0.00  0.58  0.00
  YS02163301YS02001633    1.00   0.00  0.25  0.00  0.75  0.00  0.00  0.00  0.00  0.00
  YS02163601YS02164001    1.00   0.00  0.03  0.00  0.97  0.00  0.00  0.00  0.00  0.00
  YS02164001YS02001641    1.00   0.00  0.02  0.00  0.97  0.00  0.00  0.00  0.07  0.00
  YSB1154YSB6556          1.00   0.15  0.00  0.00  0.85  0.00  0.00  0.00  0.02  0.00
  YSB1171HS02004479       1.00   0.01  0.00  0.00  0.98  0.00  0.00  0.00  0.14  0.00
  YSB1174YSB1171          1.00   0.02  0.04  0.00  0.94  0.00  0.00  0.00  0.00  0.00
  YSB6556YSB1171          1.00   0.01  0.14  0.00  0.85  0.00  0.00  0.00  0.00  0.00
  
  
  *************************
  Conduit Surcharge Summary
  *************************
  
  ----------------------------------------------------------------------------
                                                           Hours        Hours 
                         --------- Hours Full --------   Above Full   Capacity
  Conduit                Both Ends  Upstream  Dnstream   Normal Flow   Limited
  ----------------------------------------------------------------------------
  HS02004478WS02006287        0.45      0.45      0.62      0.01         0.01
  HS02004479HS02004480        0.62      0.62      0.64      0.01         0.01
  HS02004480HS02004478        0.55      0.61      0.55      1.64         0.55
  HS02004770HS02004777        0.51      0.51      0.52      0.10         0.05
  HS02004777HS02004785        0.47      0.47      0.52      0.01         0.01
  HS02004785HS02004788        0.46      0.47      0.46      1.30         0.43
  HS02004788HS02004792        0.46      0.46      0.58      0.01         0.01
  HS02004792HS02004799        0.58      0.58      0.71      0.01         0.01
  HS02004799HS02004480        0.61      0.61      0.71      0.79         0.01
  HS02004802HS02004478        0.57      0.57      0.63      0.08         0.01
  HS02004807HS02004802        0.61      0.61      0.62      0.25         0.26
  HS02004817HS02004807        0.61      0.61      1.12      0.01         0.01
  HS02004817HS02004824        0.47      0.47      1.12      0.01         0.01
  HS02004824HS02004830        0.44      0.44      0.47      0.01         0.01
  HS02004830HS02004837        0.41      0.41      0.44      0.01         0.01
  HS02004837HS02004842        0.41      0.41      0.54      0.01         0.01
  HS02004842HS02004848        0.38      0.38      0.54      0.01         0.01
  HS02004848HS02004852        0.38      0.38      0.39      0.02         0.01
  HS02004852HS02004856        0.39      0.39      0.42      0.01         0.01
  HS02004856HS02004862        0.39      0.39      0.42      0.01         0.01
  HS02004862HS02004870        0.42      0.42      0.44      0.15         0.17
  HS02004870HS02004876        0.44      0.44      0.50      0.01         0.01
  HS02004876HS02004881        0.48      0.50      0.48      1.36         0.48
  HS02004881HS02006253        0.48      0.48      2.16      0.01         0.01
  HS02004901HS02004770        0.51      0.51      0.52      0.01         0.01
  WS02003072WS02003073        0.01      0.01      0.01      2.93         0.01
  WS02004401WS02004402        1.54      1.54      1.58      1.34         1.33
  WS02004402WS02004403        1.58      1.58      1.59      1.53         1.53
  WS02004403WS02004404        1.59      1.59      1.82      0.01         0.01
  WS02004404WS02004405        1.76      1.82      1.76      3.64         1.76
  WS02004405WS02004406        1.72      1.76      1.72      2.31         1.72
  WS02004406WS02004407        0.01      0.01      1.72      0.01         0.01
  WS02004407WS02004409        0.01      0.01      0.99      0.01         0.01
  WS02004409WS02004410        0.90      0.99      0.90      1.42         0.90
  WS02004410WS02004411        0.81      0.90      0.81      1.48         0.81
  WS02004411WS02004412        0.73      0.81      0.73      1.52         0.73
  WS02004412WS02004413        0.73      0.73      1.29      0.01         0.01
  WS02004413WS02003067        0.01      0.01      1.29      0.01         0.01
  WS02006109WS02006110        2.19      2.20      2.67      2.21         0.01
  WS02006110WS02006113        1.29      1.29      2.65      0.27         0.01
  WS02006111WS02006112        1.25      1.26      2.84      0.01         0.01
  WS02006112WS02006115        1.42      1.42      2.42      0.01         0.01
  WS02006113WS02006111        1.28      1.29      1.28      1.34         1.28
  WS02006115WS02006116        1.43      1.43      1.44      1.41         1.40
  WS02006116WS02004401        1.53      1.53      1.54      1.49         1.48
  WS02006228WS02006109        2.61      2.67      2.61      2.94         2.61
  WS02006229WS02006228        2.60      2.62      2.60      2.83         2.60
  WS02006230WS02006229        2.72      2.77      2.72      3.64         1.75
  WS02006231WS02006230        1.89      1.89      2.22      3.50         0.97
  WS02006232WS02006231        2.17      2.17      2.47      0.01         0.15
  WS02006234WS02006232        2.37      2.37      2.47      0.01         0.01
  WS02006235WS02006234        2.34      2.34      2.38      3.41         0.94
  WS02006238WS02006235        2.39      2.39      2.42      0.01         0.31
  WS02006239WS02006238        2.36      2.36      2.40      1.54         0.81
  WS02006240WS02006239        2.30      2.30      2.32      1.53         0.80
  WS02006242WS02006240        2.29      2.29      2.33      1.62         0.79
  WS02006243WS02006242        2.25      2.25      2.31      0.01         0.01
  WS02006245WS02006243        2.23      2.23      2.24      0.74         0.76
  WS02006247WS02006245        2.22      2.22      2.22      3.03         1.03
  WS02006248WS02006247        2.20      2.20      2.22      0.01         0.01
  WS02006249WS02006248        2.20      2.20      2.20      2.00         0.01
  WS02006251WS02006249        2.19      2.19      2.20      2.05         2.07
  WS02006252WS02006251        2.15      2.15      2.16      1.32         0.01
  WS02006253WS02006251        2.19      2.19      2.19      0.74         0.01
  WS02006256WS02006235        3.56      3.57      4.69      0.58         0.01
  WS02006280WS02006229        0.74      0.74      0.84      0.01         0.01
  WS02006284WS02006280        0.64      0.64      0.72      0.01         0.01
  WS02006287WS02006284        0.54      0.54      0.65      0.29         0.29
  YS02001580YS02001583        0.55      0.55      0.61      0.01         0.01
  YS02001583YS02001586        0.56      0.56      0.69      0.01         0.01
  YS02001586YS02001590        0.69      0.69      0.76      0.01         0.01
  YS02001590YS02001593        0.76      0.76      0.78      0.76         0.01
  YS02001593YS02001596        0.77      0.77      0.87      0.01         0.01
  YS02001596YS02001600        0.92      0.92      1.01      0.01         0.01
  YS02001600YS02001601        1.07      1.07      1.36      0.01         0.01
  YS02001601YS02001602        1.25      1.25      1.41      1.01         0.01
  YS02001602YS02001605        1.20      1.20      1.25      2.33         0.01
  YS02001605YS02001607        1.16      1.20      1.16      1.29         1.13
  YS02001607YS02001610        0.76      0.76      0.78      0.01         0.01
  YS02001610YS02001613        0.75      0.75      0.78      0.01         0.01
  YS02001613YS02001616        0.72      0.72      0.75      0.01         0.01
  YS02001616YS02001619        0.70      0.70      0.72      0.01         0.01
  YS02001619YS02001622        0.70      0.70      0.70      0.73         0.62
  YS02001622YS02001625        0.70      0.70      0.87      0.01         0.01
  YS02001625YS02001629        0.65      0.65      0.87      0.01         0.01
  YS02001629YS02163301        0.87      0.87      0.88      0.07         0.11
  YS02001633YS02163601        0.90      0.90      0.94      0.19         0.19
  YS02001641YS02001644        0.82      0.86      0.82      1.47         0.79
  YS02001644YS02001647        0.64      0.64      0.82      0.01         0.01
  YS02001647YS02001649        0.64      0.64      0.76      0.01         0.01
  YS02001649YS02001757        0.76      0.76      0.83      0.03         0.03
  YS02001652YS02001649        0.62      0.62      0.76      0.01         0.01
  YS02001655YS02001652        0.47      0.47      0.60      0.01         0.01
  YS02001658YS02001655        0.27      0.27      0.47      0.01         0.01
  YS02001661YS02001658        0.03      0.03      0.27      0.01         0.01
  YS02001664YS02001661        0.01      0.01      0.09      0.01         0.01
  YS02001745YS02001748        0.01      0.01      0.22      0.01         0.01
  YS02001748YS02001751        0.25      0.25      0.37      0.01         0.01
  YS02001751YS02001754        0.37      0.37      0.54      0.01         0.01
  YS02001754YS02001757        0.58      0.58      0.83      0.01         0.01
  YS02001757CaochengTiaoxuchi        0.83      0.83      1.39      0.30         0.30
  YS02001759YS02001757        0.75      0.75      0.83      0.01         0.01
  YS02001762YS02001759        0.72      0.72      0.75      0.01         0.01
  YS02001765YS02001762        0.69      0.69      0.72      0.01         0.01
  YS02001767YS02001765        0.66      0.66      0.69      0.01         0.01
  YS02001770YS02001767        0.65      0.65      0.66      0.42         0.39
  YS02001774YS02001770        0.64      0.64      0.71      0.01         0.01
  YS02001779YS02001774        0.52      0.52      0.71      0.01         0.01
  YS02001783YS02001784        0.59      0.60      0.59      0.61         0.54
  YS02001784YS02001785        0.48      0.59      0.48      0.90         0.47
  YS02001786YS02001788        0.17      0.48      0.18      0.80         0.17
  YS02001788YS02001790        0.18      0.18      0.26      0.01         0.01
  YS02001790YS02001791        0.24      0.26      0.25      0.50         0.09
  YS02001791YS02001793        0.25      0.25      0.33      0.01         0.01
  YS02001793JiankangQianchi        0.31      0.31      3.82      0.01         0.01
  YS02001882YS02001884        0.47      0.47      0.48      0.01         0.01
  YS02001884YS02001887        0.50      0.50      0.51      0.01         0.01
  YS02001887YS02001890        0.52      0.52      0.53      0.09         0.01
  YS02001890YS02001895        0.45      0.45      0.55      0.01         0.01
  YS02001895YS02001898        0.44      0.44      0.45      0.01         0.01
  YS02001898YS02001901        0.46      0.46      0.50      0.01         0.01
  YS02001901YS02001904        0.48      0.48      0.50      0.01         0.01
  YS02001904YS02001907        0.48      0.48      0.77      0.01         0.01
  YS02001907YS02006553        0.91      0.91      0.97      0.01         0.01
  YS02001910YS02001907        0.55      0.55      0.75      0.01         0.01
  YS02001915YS02001910        0.46      0.46      0.55      0.01         0.01
  YS02001918YS02001915        0.37      0.37      0.46      0.01         0.01
  YS02001920YS02001918        0.37      0.37      0.39      0.01         0.01
  YS02001923YS02001920        0.33      0.33      0.39      0.01         0.01
  YS02001926YS02001923        0.06      0.06      0.08      0.01         0.01
  YS02001929YS02001926        0.01      0.01      0.08      0.01         0.01
  YS02006553YS02006556        0.64      0.64      0.77      0.01         0.01
  YS02006556YS02006558        0.70      0.70      0.78      0.01         0.01
  YS02006558YS02006561        0.40      0.63      0.40      0.86         0.40
  YS02006561YS02001783        0.34      0.34      0.60      0.01         0.01
  YS02163301YS02001633        0.88      0.88      0.92      0.01         0.01
  YS02163601YS02164001        0.85      0.85      0.94      0.08         0.01
  YS02164001YS02001641        0.85      0.85      0.86      0.56         0.47
  YSB1154YSB6556              0.68      0.68      0.82      0.01         0.01
  YSB1171HS02004479           0.58      0.58      0.82      0.01         0.01
  YSB1174YSB1171              0.75      0.75      1.03      0.01         0.01
  YSB6556YSB1171              0.68      0.68      1.17      0.01         0.01
  
  
  ***************
  Pumping Summary
  ***************
  
  ---------------------------------------------------------------------------------------------------------
                                                  Min       Avg       Max     Total     Power    % Time Off
                        Percent   Number of      Flow      Flow      Flow    Volume     Usage    Pump Curve
  Pump                 Utilized   Start-Ups       LPS       LPS       LPS  10^6 ltr     Kw-hr    Low   High
  ---------------------------------------------------------------------------------------------------------
  CC-R1                   25.04           1      0.00    683.00    683.00     3.694     69.15    0.0   25.4
  CC-R2                   25.04           1      0.00    683.00    683.00     3.694     69.15    0.0   25.4
  CC-S1                   55.61           1      0.00    200.00    200.00     2.402     15.65    0.0    1.1
  CC-S2                   27.82           1      0.00    200.00    200.00     1.202      7.65    0.0    2.3
  JK-R1                   11.12           4      0.00    785.10   1000.00     1.788     11.26    0.0    0.0
  JK-R2                   11.12           4      0.00    785.10   1000.00     1.788     11.26    0.0    0.0
  JK-S                    16.68           5      0.00    280.87    300.00     0.975     18.72    0.0    0.0
  XR-1                    97.21           1      0.00     95.00     95.00     1.995      8.80    0.0    0.0
  XR-2                    91.94           1      0.00     95.00     95.00     1.887      7.97    0.0    0.0
  XR-3                     0.00           0      0.00      0.00      0.00     0.000      0.00    0.0    0.0
  XR-4                     0.00           0      0.00      0.00      0.00     0.000      0.00    0.0    0.0
  

  Analysis begun on:  Fri Aug 12 15:12:23 2022
  Analysis ended on:  Fri Aug 12 15:12:27 2022
  Total elapsed time: 00:00:04