
  EPA STORM WATER MANAGEMENT MODEL - VERSION 5.1 (Build 5.3.0.dev0)
  --------------------------------------------------------------

  
  *********************************************************
  NOTE: The summary statistics displayed in this report are
  based on results found at every computational time step,  
  not just on results from each reporting time step.
  *********************************************************
  
  ****************
  Analysis Options
  ****************
  Flow Units ............... CMS
  Process Models:
    Rainfall/Runoff ........ YES
    RDII ................... NO
    Snowmelt ............... NO
    Groundwater ............ NO
    Flow Routing ........... YES
    Ponding Allowed ........ NO
    Water Quality .......... NO
  Infiltration Method ...... HORTON
  Flow Routing Method ...... DYNWAVE
  Surcharge Method ......... EXTRAN
  Starting Date ............ 10/01/2009 14:25:00
  Ending Date .............. 10/02/2009 00:25:00
  Antecedent Dry Days ...... 0.0
  Report Time Step ......... 00:05:00
  Wet Time Step ............ 00:05:00
  Dry Time Step ............ 01:00:00
  Routing Time Step ........ 30.00 sec
  Variable Time Step ....... YES
  Maximum Trials ........... 8
  Number of Threads ........ 1
  Head Tolerance ........... 0.001500 m
  
  
  **************************        Volume         Depth
  Runoff Quantity Continuity     hectare-m            mm
  **************************     ---------       -------
  Total Precipitation ......         1.586         8.803
  Evaporation Loss .........         0.000         0.000
  Infiltration Loss ........         0.000         0.000
  Surface Runoff ...........         1.569         8.709
  Final Storage ............         0.023         0.126
  Continuity Error (%) .....        -0.357
  
  
  **************************        Volume        Volume
  Flow Routing Continuity        hectare-m      10^6 ltr
  **************************     ---------     ---------
  Dry Weather Inflow .......         0.276         2.756
  Wet Weather Inflow .......         1.569        15.689
  Groundwater Inflow .......         0.000         0.000
  RDII Inflow ..............         0.000         0.000
  External Inflow ..........         0.000         0.000
  External Outflow .........         0.876         8.764
  Flooding Loss ............         0.292         2.923
  Evaporation Loss .........         0.000         0.000
  Exfiltration Loss ........         0.000         0.000
  Initial Stored Volume ....         0.000         0.000
  Final Stored Volume ......         0.536         5.359
  Continuity Error (%) .....         7.584
  
  
  *************************
  Highest Continuity Errors
  *************************
  Node T2 (38.58%)
  Node T4 (24.13%)
  Node T5 (12.98%)
  Node T3 (12.75%)
  Node T1 (4.96%)
  
  
  ***************************
  Time-Step Critical Elements
  ***************************
  Link C21 (23.12%)
  Link C15 (12.58%)
  Link C8 (2.56%)
  Link C5 (2.03%)
  
  
  ********************************
  Highest Flow Instability Indexes
  ********************************
  Link C23 (2)
  Link C3 (2)
  Link C11 (2)
  Link C15 (1)
  Link C20 (1)
  
  
  *************************
  Routing Time Step Summary
  *************************
  Minimum Time Step           :     0.09 sec
  Average Time Step           :    26.98 sec
  Maximum Time Step           :    30.00 sec
  Percent in Steady State     :     4.66
  Average Iterations per Step :     2.37
  Percent Not Converging      :     1.89
  
  
  ***************************
  Subcatchment Runoff Summary
  ***************************
  
  ------------------------------------------------------------------------------------------------------------------------------
                            Total      Total      Total      Total     Imperv       Perv      Total       Total     Peak  Runoff
                           Precip      Runon       Evap      Infil     Runoff     Runoff     Runoff      Runoff   Runoff   Coeff
  Subcatchment                 mm         mm         mm         mm         mm         mm         mm    10^6 ltr      CMS
  ------------------------------------------------------------------------------------------------------------------------------
  SC01                      12.44       0.00       0.00       0.00      12.40       0.00      12.40        4.09     0.72   0.997
  SC010                     12.44       0.00       0.00       0.00      12.37       0.00      12.37        1.45     0.23   0.994
  SC02                       9.02       0.00       0.00       0.00       8.97       0.00       8.97        2.04     0.53   0.994
  SC03                       3.88       0.00       0.00       0.00       3.83       0.00       3.83        0.69     0.13   0.988
  SC04                       9.02       0.00       0.00       0.00       8.85       0.00       8.85        0.61     0.10   0.982
  SC05                      12.44       0.00       0.00       0.00      12.39       0.00      12.39        1.93     0.33   0.996
  SC06                       8.79       0.00       0.00       0.00       8.59       0.00       8.59        2.80     0.30   0.977
  SC07                       9.02       0.00       0.00       0.00       8.86       0.00       8.86        0.42     0.07   0.982
  SC08                       3.88       0.00       0.00       0.00       3.77       0.00       3.77        1.06     0.17   0.972
  SC09                       8.79       0.00       0.00       0.00       8.69       0.00       8.69        0.60     0.09   0.988
  
  
  ******************
  Node Depth Summary
  ******************
  
  ---------------------------------------------------------------------------------
                                 Average  Maximum  Maximum  Time of Max    Reported
                                   Depth    Depth      HGL   Occurrence   Max Depth
  Node                 Type       Meters   Meters   Meters  days hr:min      Meters
  ---------------------------------------------------------------------------------
  CSO10                JUNCTION     0.20     1.00    31.00     0  00:36        1.00
  CSO7                 JUNCTION     0.12     1.20    35.20     0  04:08        1.20
  CSO8                 JUNCTION     0.09     0.26    32.26     0  01:40        0.25
  CSO9                 JUNCTION     0.12     0.75    40.75     0  00:30        0.75
  J1                   JUNCTION     0.08     0.19    34.19     0  00:40        0.19
  J10                  JUNCTION     0.07     0.17    29.17     0  01:44        0.17
  J11                  JUNCTION     0.07     0.18    31.18     0  01:44        0.18
  J12                  JUNCTION     0.14     0.22    26.22     0  01:47        0.22
  J13                  JUNCTION     0.06     0.20    29.20     0  04:05        0.19
  J14                  JUNCTION     0.13     0.17    20.17     0  07:38        0.17
  J15                  JUNCTION     0.20     0.33    15.33     0  01:09        0.33
  J16                  JUNCTION     0.08     0.21    30.21     0  00:40        0.21
  J17                  JUNCTION     0.05     0.14    20.14     0  05:10        0.14
  J18                  JUNCTION     0.07     0.16    29.16     0  01:11        0.16
  J19                  JUNCTION     0.16     0.17     8.17     0  01:09        0.17
  J2                   JUNCTION     0.07     0.08    25.08     0  04:37        0.08
  J3                   JUNCTION     0.12     0.16    18.16     0  05:35        0.16
  J4                   JUNCTION     0.12     0.89    33.89     0  04:08        0.75
  J5                   JUNCTION     0.06     0.14    32.14     0  04:10        0.14
  J6                   JUNCTION     0.05     0.12    25.12     0  05:35        0.12
  J7                   JUNCTION     0.08     0.19    39.19     0  00:31        0.19
  J8                   JUNCTION     0.11     0.21    36.21     0  00:31        0.21
  J9                   JUNCTION     0.13     0.16    29.16     0  06:11        0.16
  Out_to_WWTP          OUTFALL      0.16     0.17     6.17     0  06:31        0.17
  T1                   STORAGE      4.27     5.00    15.00     0  01:08        5.00
  T2                   STORAGE      3.11     4.81    25.81     0  06:58        4.81
  T3                   STORAGE      2.07     3.07    25.07     0  07:35        3.07
  T4                   STORAGE      3.17     5.00    32.00     0  05:28        5.00
  T5                   STORAGE      4.05     5.00    32.00     0  03:57        5.00
  T6                   STORAGE      2.72     4.59    35.59     0  05:56        4.59
  
  
  *******************
  Node Inflow Summary
  *******************
  
  -------------------------------------------------------------------------------------------------
                                  Maximum  Maximum                  Lateral       Total        Flow
                                  Lateral    Total  Time of Max      Inflow      Inflow     Balance
                                   Inflow   Inflow   Occurrence      Volume      Volume       Error
  Node                 Type           CMS      CMS  days hr:min    10^6 ltr    10^6 ltr     Percent
  -------------------------------------------------------------------------------------------------
  CSO10                JUNCTION     0.230    0.230     0  01:05        1.55        1.56      -0.118
  CSO7                 JUNCTION     0.079    0.079     0  04:10       0.629        0.63      -0.064
  CSO8                 JUNCTION     0.179    0.179     0  01:40        1.19        1.18       0.343
  CSO9                 JUNCTION     0.092    0.092     0  00:30       0.739       0.741      -0.145
  J1                   JUNCTION     0.344    0.344     0  00:40        2.33        2.34      -0.305
  J10                  JUNCTION     0.144    0.304     0  01:42       0.966        2.12       0.780
  J11                  JUNCTION     0.000    0.179     0  01:41           0        1.18       1.276
  J12                  JUNCTION     0.000    0.449     0  01:44           0        6.13       0.179
  J13                  JUNCTION     0.543    0.543     0  04:05        2.38        2.38      -0.541
  J14                  JUNCTION     0.000    0.148     0  07:35           0        3.98      -0.151
  J15                  JUNCTION     0.000    0.962     0  00:40           0        12.3       0.287
  J16                  JUNCTION     0.732    0.732     0  00:40        4.49         4.5      -0.280
  J17                  JUNCTION     0.000    0.132     0  05:05           0       0.556       0.838
  J18                  JUNCTION     0.000    0.202     0  01:11           0        1.54      -0.316
  J19                  JUNCTION     0.000    0.271     0  01:08           0        8.78       0.129
  J2                   JUNCTION     0.000    0.039     0  03:57           0        1.25       0.350
  J3                   JUNCTION     0.000    0.261     0  05:35           0        5.73       0.456
  J4                   JUNCTION     0.000    0.077     0  04:07           0       0.627      -0.306
  J5                   JUNCTION     0.107    0.178     0  04:10       0.703        1.33      -0.301
  J6                   JUNCTION     0.000    0.080     0  05:30           0       0.525       4.745
  J7                   JUNCTION     0.000    0.092     0  00:30           0       0.742      -0.066
  J8                   JUNCTION     0.330    0.414     0  00:30        3.47        4.22      -0.373
  J9                   JUNCTION     0.000    0.168     0  05:56           0        4.07       1.085
  Out_to_WWTP          OUTFALL      0.000    0.271     0  01:09           0        8.76       0.000
  T1                   STORAGE      0.000    0.943     0  01:09           0        12.3       5.215
  T2                   STORAGE      0.000    0.536     0  04:06           0        2.39      62.813
  T3                   STORAGE      0.000    0.440     0  01:47           0        6.12      14.610
  T4                   STORAGE      0.000    0.177     0  04:11           0        1.34      31.798
  T5                   STORAGE      0.000    0.342     0  00:40           0        2.35      14.919
  T6                   STORAGE      0.000    0.408     0  00:31           0        4.23       2.410
  
  
  **********************
  Node Surcharge Summary
  **********************
  
  Surcharging occurs when water rises above the top of the highest conduit.
  ---------------------------------------------------------------------
                                               Max. Height   Min. Depth
                                   Hours       Above Crown    Below Rim
  Node                 Type      Surcharged         Meters       Meters
  ---------------------------------------------------------------------
  CSO10                JUNCTION        0.68          0.560        0.000
  CSO7                 JUNCTION        0.35          0.945        0.000
  CSO9                 JUNCTION        0.16          0.431        1.251
  J4                   JUNCTION        0.31          0.587        1.113
  
  
  *********************
  Node Flooding Summary
  *********************
  
  Flooding refers to all water that overflows a node, whether it ponds or not.
  --------------------------------------------------------------------------
                                                             Total   Maximum
                                 Maximum   Time of Max       Flood    Ponded
                        Hours       Rate    Occurrence      Volume     Depth
  Node                 Flooded       CMS   days hr:min    10^6 ltr    Meters
  --------------------------------------------------------------------------
  CSO10                   0.41     0.028      0  01:05       0.022     0.000
  CSO7                    0.16     0.008      0  04:10       0.003     0.000
  T1                      3.01     0.673      0  01:09       2.368     0.000
  T4                      0.98     0.039      0  05:28       0.042     0.000
  T5                      2.05     0.130      0  04:06       0.487     0.000
  
  
  **********************
  Storage Volume Summary
  **********************
  
  --------------------------------------------------------------------------------------------------
                         Average     Avg  Evap Exfil       Maximum     Max    Time of Max    Maximum
                          Volume    Pcnt  Pcnt  Pcnt        Volume    Pcnt     Occurrence    Outflow
  Storage Unit           1000 m3    Full  Loss  Loss       1000 m3    Full    days hr:min        CMS
  --------------------------------------------------------------------------------------------------
  T1                       0.598      85     0     0         0.700     100       0  01:08      0.271
  T2                       0.622      62     0     0         0.963      96       0  06:58      0.132
  T3                       1.078      41     0     0         1.599      61       0  07:35      0.148
  T4                       0.317      63     0     0         0.500     100       0  05:28      0.080
  T5                       0.405      81     0     0         0.500     100       0  03:57      0.039
  T6                       0.327      54     0     0         0.551      92       0  05:56      0.168
  
  
  ***********************
  Outfall Loading Summary
  ***********************
  
  -----------------------------------------------------------
                         Flow       Avg       Max       Total
                         Freq      Flow      Flow      Volume
  Outfall Node           Pcnt       CMS       CMS    10^6 ltr
  -----------------------------------------------------------
  Out_to_WWTP           99.17     0.244     0.271       8.764
  -----------------------------------------------------------
  System                99.17     0.244     0.271       8.764
  
  
  ********************
  Link Flow Summary
  ********************
  
  -----------------------------------------------------------------------------
                                 Maximum  Time of Max   Maximum    Max/    Max/
                                  |Flow|   Occurrence   |Veloc|    Full    Full
  Link                 Type          CMS  days hr:min     m/sec    Flow   Depth
  -----------------------------------------------------------------------------
  C1                   CONDUIT     0.039     0  04:37      1.25    0.01    0.12
  C10                  CONDUIT     0.408     0  00:31      1.69    0.04    0.57
  C11                  CONDUIT     0.251     0  05:36      1.83    0.01    0.11
  C12                  CONDUIT     0.167     0  06:13      1.48    0.01    0.09
  C13                  CONDUIT     0.440     0  01:47      1.68    0.03    0.54
  C14                  CONDUIT     0.271     0  01:09      2.08    0.02    0.09
  C15                  CONDUIT     0.179     0  01:41      2.36    0.57    0.48
  C16                  CONDUIT     0.172     0  01:44      1.28    0.02    0.09
  C17                  CONDUIT     0.300     0  01:44      1.92    0.01    0.10
  C18                  CONDUIT     0.536     0  04:06      3.22    0.02    0.55
  C19                  CONDUIT     0.130     0  05:10      1.11    0.04    0.21
  C2                   CONDUIT     0.079     0  05:35      1.79    0.09    0.23
  C20                  CONDUIT     0.726     0  00:40      3.59    0.02    0.13
  C21                  CONDUIT     0.202     0  01:11      1.83    1.16    0.69
  C22                  CONDUIT     0.202     0  01:11      1.64    0.09    0.31
  C23                  CONDUIT     0.943     0  01:09      2.34    0.10    0.61
  C3                   CONDUIT     0.148     0  07:36      2.01    0.06    0.16
  C4                   CONDUIT     0.342     0  00:40      2.44    0.08    0.60
  C5                   CONDUIT     0.077     0  04:07      1.51    1.32    1.00
  C6                   CONDUIT     0.071     0  04:09      1.28    1.12    0.74
  C7                   CONDUIT     0.177     0  04:11      1.47    0.04    0.57
  C8                   CONDUIT     0.092     0  00:30      1.36    1.16    0.80
  C9                   CONDUIT     0.088     0  00:31      1.21    0.30    0.40
  V1                   ORIFICE     0.271     0  01:08                      1.00
  V2                   ORIFICE     0.132     0  05:05                      1.00
  V3                   ORIFICE     0.148     0  07:35                      1.00
  V4                   ORIFICE     0.080     0  05:30                      1.00
  V5                   ORIFICE     0.039     0  03:57                      1.00
  V6                   ORIFICE     0.168     0  05:56                      1.00
  
  
  ***************************
  Flow Classification Summary
  ***************************
  
  -------------------------------------------------------------------------------------
                      Adjusted    ---------- Fraction of Time in Flow Class ---------- 
                       /Actual         Up    Down  Sub   Sup   Up    Down  Norm  Inlet 
  Conduit               Length    Dry  Dry   Dry   Crit  Crit  Crit  Crit  Ltd   Ctrl  
  -------------------------------------------------------------------------------------
  C1                      1.00   0.00  0.00  0.00  0.42  0.58  0.00  0.00  0.94  0.00
  C10                     1.00   0.00  0.00  0.00  0.97  0.03  0.00  0.00  0.98  0.00
  C11                     1.00   0.00  0.00  0.00  0.30  0.70  0.00  0.00  1.00  0.00
  C12                     1.00   0.00  0.00  0.00  0.20  0.80  0.00  0.00  0.48  0.00
  C13                     1.00   0.00  0.00  0.00  0.89  0.11  0.00  0.00  0.93  0.00
  C14                     1.00   0.01  0.00  0.00  0.01  0.99  0.00  0.00  0.38  0.00
  C15                     1.00   0.00  0.00  0.00  0.00  1.00  0.00  0.00  0.01  0.00
  C16                     1.00   0.00  0.00  0.00  0.52  0.48  0.00  0.00  0.49  0.00
  C17                     1.00   0.00  0.00  0.00  0.60  0.40  0.00  0.00  0.98  0.00
  C18                     1.00   0.00  0.00  0.00  0.94  0.06  0.00  0.00  0.98  0.00
  C19                     1.00   0.00  0.00  0.00  1.00  0.00  0.00  0.00  1.00  0.00
  C2                      1.00   0.00  0.00  0.00  0.89  0.11  0.00  0.00  1.00  0.00
  C20                     1.00   0.00  0.00  0.00  0.56  0.44  0.00  0.00  0.98  0.00
  C21                     1.00   0.00  0.00  0.00  0.00  1.00  0.00  0.00  0.00  0.00
  C22                     1.00   0.00  0.00  0.00  0.79  0.21  0.00  0.00  1.00  0.00
  C23                     1.00   0.00  0.00  0.00  0.95  0.05  0.00  0.00  0.95  0.00
  C3                      1.00   0.00  0.00  0.00  0.03  0.96  0.00  0.00  0.16  0.00
  C4                      1.00   0.00  0.00  0.00  0.95  0.05  0.00  0.00  0.98  0.00
  C5                      1.00   0.00  0.00  0.00  0.91  0.09  0.00  0.00  0.94  0.00
  C6                      1.00   0.00  0.00  0.00  0.06  0.94  0.00  0.00  0.00  0.00
  C7                      1.00   0.00  0.00  0.00  0.96  0.04  0.00  0.00  0.98  0.00
  C8                      1.00   0.00  0.00  0.00  0.33  0.67  0.00  0.00  0.00  0.00
  C9                      1.00   0.00  0.00  0.00  0.99  0.01  0.00  0.00  1.00  0.00
  
  
  *************************
  Conduit Surcharge Summary
  *************************
  
  ----------------------------------------------------------------------------
                                                           Hours        Hours 
                         --------- Hours Full --------   Above Full   Capacity
  Conduit                Both Ends  Upstream  Dnstream   Normal Flow   Limited
  ----------------------------------------------------------------------------
  C10                         0.01      0.01      7.90      0.01         0.01
  C13                         0.01      0.01      7.05      0.01         0.01
  C18                         0.01      0.01      7.34      0.01         0.01
  C21                         0.01      0.68      0.01      0.68         0.01
  C23                         0.01      0.01      9.32      0.01         0.01
  C4                          0.01      0.01      9.38      0.01         0.01
  C5                          0.31      0.35      0.42      0.35         0.28
  C6                          0.01      0.31      0.01      0.20         0.01
  C7                          0.01      0.01      8.65      0.01         0.01
  C8                          0.01      0.16      0.01      0.16         0.01
  

  Analysis begun on:  Wed Feb  9 23:10:09 2022
  Analysis ended on:  Wed Feb  9 23:10:10 2022
  Total elapsed time: 00:00:01