
  EPA STORM WATER MANAGEMENT MODEL - VERSION 5.1 (Build 5.3.0.dev0)
  --------------------------------------------------------------

  
  *********************************************************
  NOTE: The summary statistics displayed in this report are
  based on results found at every computational time step,  
  not just on results from each reporting time step.
  *********************************************************
  
  ****************
  Analysis Options
  ****************
  Flow Units ............... CMS
  Process Models:
    Rainfall/Runoff ........ YES
    RDII ................... NO
    Snowmelt ............... NO
    Groundwater ............ NO
    Flow Routing ........... YES
    Ponding Allowed ........ NO
    Water Quality .......... NO
  Infiltration Method ...... HORTON
  Flow Routing Method ...... DYNWAVE
  Surcharge Method ......... EXTRAN
  Starting Date ............ 02/28/2007 12:15:00
  Ending Date .............. 03/01/2007 07:15:00
  Antecedent Dry Days ...... 0.0
  Report Time Step ......... 00:05:00
  Wet Time Step ............ 00:05:00
  Dry Time Step ............ 01:00:00
  Routing Time Step ........ 30.00 sec
  Variable Time Step ....... YES
  Maximum Trials ........... 8
  Number of Threads ........ 1
  Head Tolerance ........... 0.001500 m
  
  
  **************************        Volume         Depth
  Runoff Quantity Continuity     hectare-m            mm
  **************************     ---------       -------
  Total Precipitation ......         1.588         8.815
  Evaporation Loss .........         0.000         0.000
  Infiltration Loss ........         0.000         0.000
  Surface Runoff ...........         1.570         8.713
  Final Storage ............         0.021         0.119
  Continuity Error (%) .....        -0.184
  
  
  **************************        Volume        Volume
  Flow Routing Continuity        hectare-m      10^6 ltr
  **************************     ---------     ---------
  Dry Weather Inflow .......         0.515         5.154
  Wet Weather Inflow .......         1.570        15.700
  Groundwater Inflow .......         0.000         0.000
  RDII Inflow ..............         0.000         0.000
  External Inflow ..........         0.000         0.000
  External Outflow .........         1.478        14.784
  Flooding Loss ............         0.211         2.106
  Evaporation Loss .........         0.000         0.000
  Exfiltration Loss ........         0.000         0.000
  Initial Stored Volume ....         0.000         0.000
  Final Stored Volume ......         0.347         3.468
  Continuity Error (%) .....         2.373
  
  
  *************************
  Highest Continuity Errors
  *************************
  Node T2 (30.79%)
  Node T4 (12.12%)
  Node T5 (5.24%)
  Node T3 (3.60%)
  Node T1 (2.17%)
  
  
  ***************************
  Time-Step Critical Elements
  ***************************
  Link C15 (27.87%)
  Link C21 (2.10%)
  
  
  ********************************
  Highest Flow Instability Indexes
  ********************************
  Link C13 (3)
  Link C3 (2)
  Link C11 (2)
  Link C23 (2)
  Link C20 (2)
  
  
  *************************
  Routing Time Step Summary
  *************************
  Minimum Time Step           :     0.40 sec
  Average Time Step           :    28.09 sec
  Maximum Time Step           :    30.00 sec
  Percent in Steady State     :     2.06
  Average Iterations per Step :     2.03
  Percent Not Converging      :     0.00
  
  
  ***************************
  Subcatchment Runoff Summary
  ***************************
  
  ------------------------------------------------------------------------------------------------------------------------------
                            Total      Total      Total      Total     Imperv       Perv      Total       Total     Peak  Runoff
                           Precip      Runon       Evap      Infil     Runoff     Runoff     Runoff      Runoff   Runoff   Coeff
  Subcatchment                 mm         mm         mm         mm         mm         mm         mm    10^6 ltr      CMS
  ------------------------------------------------------------------------------------------------------------------------------
  SC01                      10.33       0.00       0.00       0.00      10.29       0.00      10.29        3.39     0.48   0.996
  SC010                     10.33       0.00       0.00       0.00      10.27       0.00      10.27        1.21     0.15   0.994
  SC02                       8.34       0.00       0.00       0.00       8.29       0.00       8.29        1.89     0.30   0.994
  SC03                       7.71       0.00       0.00       0.00       7.58       0.00       7.58        1.36     0.23   0.983
  SC04                       8.34       0.00       0.00       0.00       8.24       0.00       8.24        0.57     0.07   0.988
  SC05                      10.33       0.00       0.00       0.00      10.28       0.00      10.28        1.60     0.22   0.995
  SC06                       8.20       0.00       0.00       0.00       8.04       0.00       8.04        2.62     0.26   0.980
  SC07                       8.34       0.00       0.00       0.00       8.24       0.00       8.24        0.39     0.05   0.988
  SC08                       7.71       0.00       0.00       0.00       7.54       0.00       7.54        2.11     0.29   0.978
  SC09                       8.20       0.00       0.00       0.00       8.08       0.00       8.08        0.56     0.07   0.985
  
  
  ******************
  Node Depth Summary
  ******************
  
  ---------------------------------------------------------------------------------
                                 Average  Maximum  Maximum  Time of Max    Reported
                                   Depth    Depth      HGL   Occurrence   Max Depth
  Node                 Type       Meters   Meters   Meters  days hr:min      Meters
  ---------------------------------------------------------------------------------
  CSO10                JUNCTION     0.10     0.36    30.36     0  02:55        0.36
  CSO7                 JUNCTION     0.07     0.20    34.20     0  03:00        0.20
  CSO8                 JUNCTION     0.09     0.37    32.37     0  02:50        0.37
  CSO9                 JUNCTION     0.08     0.27    40.27     0  02:55        0.27
  J1                   JUNCTION     0.06     0.16    34.16     0  02:55        0.16
  J10                  JUNCTION     0.07     0.22    29.22     0  02:50        0.22
  J11                  JUNCTION     0.07     0.23    31.23     0  02:51        0.23
  J12                  JUNCTION     0.13     0.25    26.25     0  02:53        0.25
  J13                  JUNCTION     0.05     0.15    29.15     0  02:56        0.15
  J14                  JUNCTION     0.14     0.19    20.19     0  08:42        0.18
  J15                  JUNCTION     0.17     0.28    15.28     0  02:57        0.28
  J16                  JUNCTION     0.06     0.17    30.17     0  02:55        0.17
  J17                  JUNCTION     0.05     0.14    20.14     0  07:10        0.14
  J18                  JUNCTION     0.05     0.14    29.14     0  02:56        0.14
  J19                  JUNCTION     0.15     0.17     8.17     0  04:07        0.17
  J2                   JUNCTION     0.07     0.08    25.08     0  07:30        0.08
  J3                   JUNCTION     0.12     0.16    18.16     0  07:25        0.16
  J4                   JUNCTION     0.09     0.24    33.24     0  03:01        0.24
  J5                   JUNCTION     0.05     0.12    32.12     0  03:00        0.12
  J6                   JUNCTION     0.05     0.12    25.12     0  07:22        0.12
  J7                   JUNCTION     0.06     0.17    39.17     0  02:57        0.17
  J8                   JUNCTION     0.08     0.20    36.20     0  02:56        0.19
  J9                   JUNCTION     0.10     0.15    29.15     0  09:11        0.15
  Out_to_WWTP          OUTFALL      0.15     0.17     6.17     0  08:36        0.17
  T1                   STORAGE      3.56     5.00    15.00     0  04:06        5.00
  T2                   STORAGE      3.20     4.31    25.31     0  09:41        4.31
  T3                   STORAGE      2.52     4.25    26.25     0  09:39        4.25
  T4                   STORAGE      2.73     4.15    31.15     0  07:15        4.14
  T5                   STORAGE      2.84     5.00    32.00     0  06:31        5.00
  T6                   STORAGE      1.50     3.83    34.83     0  08:55        3.83
  
  
  *******************
  Node Inflow Summary
  *******************
  
  -------------------------------------------------------------------------------------------------
                                  Maximum  Maximum                  Lateral       Total        Flow
                                  Lateral    Total  Time of Max      Inflow      Inflow     Balance
                                   Inflow   Inflow   Occurrence      Volume      Volume       Error
  Node                 Type           CMS      CMS  days hr:min    10^6 ltr    10^6 ltr     Percent
  -------------------------------------------------------------------------------------------------
  CSO10                JUNCTION     0.157    0.157     0  02:55        1.39        1.39       0.027
  CSO7                 JUNCTION     0.057    0.057     0  03:00        0.78        0.78       0.032
  CSO8                 JUNCTION     0.303    0.303     0  02:50        2.37        2.37       0.006
  CSO9                 JUNCTION     0.077    0.077     0  02:55        0.82       0.821       0.023
  J1                   JUNCTION     0.236    0.236     0  02:55        2.35        2.36       0.026
  J10                  JUNCTION     0.243    0.528     0  02:50        1.88        4.25      -0.067
  J11                  JUNCTION     0.000    0.302     0  02:50           0        2.37       0.026
  J12                  JUNCTION     0.000    0.587     0  02:51           0        8.88       0.328
  J13                  JUNCTION     0.317    0.317     0  02:55        2.51        2.51      -0.216
  J14                  JUNCTION     0.000    0.175     0  09:39           0        7.94       0.095
  J15                  JUNCTION     0.000    0.713     0  02:55           0        17.4       0.318
  J16                  JUNCTION     0.493    0.493     0  02:55        4.13        4.14      -0.015
  J17                  JUNCTION     0.000    0.121     0  07:10           0       0.982       0.075
  J18                  JUNCTION     0.000    0.156     0  02:55           0        1.39      -0.069
  J19                  JUNCTION     0.000    0.271     0  04:06           0        14.8       0.062
  J2                   JUNCTION     0.000    0.039     0  06:32           0        1.91       0.160
  J3                   JUNCTION     0.000    0.284     0  08:53           0        10.9       0.195
  J4                   JUNCTION     0.000    0.057     0  03:00           0        0.78       0.387
  J5                   JUNCTION     0.075    0.130     0  03:00       0.739        1.52       0.045
  J6                   JUNCTION     0.000    0.072     0  07:15           0        1.08      -0.693
  J7                   JUNCTION     0.000    0.076     0  02:55           0        0.82       0.197
  J8                   JUNCTION     0.284    0.356     0  02:55        3.87         4.7      -0.074
  J9                   JUNCTION     0.000    0.153     0  08:55           0        4.66       0.694
  Out_to_WWTP          OUTFALL      0.000    0.271     0  04:08           0        14.8       0.000
  T1                   STORAGE      0.000    0.690     0  02:58           0        17.4       2.216
  T2                   STORAGE      0.000    0.314     0  02:56           0        2.52      44.488
  T3                   STORAGE      0.000    0.576     0  02:53           0        8.85       3.735
  T4                   STORAGE      0.000    0.129     0  03:00           0        1.52      13.791
  T5                   STORAGE      0.000    0.235     0  02:55           0        2.35       5.526
  T6                   STORAGE      0.000    0.352     0  02:57           0         4.7       0.410
  
  
  **********************
  Node Surcharge Summary
  **********************
  
  No nodes were surcharged.
  
  
  *********************
  Node Flooding Summary
  *********************
  
  Flooding refers to all water that overflows a node, whether it ponds or not.
  --------------------------------------------------------------------------
                                                             Total   Maximum
                                 Maximum   Time of Max       Flood    Ponded
                        Hours       Rate    Occurrence      Volume     Depth
  Node                 Flooded       CMS   days hr:min    10^6 ltr    Meters
  --------------------------------------------------------------------------
  T1                      4.40     0.347      0  04:18       1.906     0.000
  T5                      1.29     0.092      0  06:51       0.200     0.000
  
  
  **********************
  Storage Volume Summary
  **********************
  
  --------------------------------------------------------------------------------------------------
                         Average     Avg  Evap Exfil       Maximum     Max    Time of Max    Maximum
                          Volume    Pcnt  Pcnt  Pcnt        Volume    Pcnt     Occurrence    Outflow
  Storage Unit           1000 m3    Full  Loss  Loss       1000 m3    Full    days hr:min        CMS
  --------------------------------------------------------------------------------------------------
  T1                       0.498      71     0     0         0.700     100       0  04:06      0.271
  T2                       0.640      64     0     0         0.863      86       0  09:41      0.121
  T3                       1.311      50     0     0         2.208      85       0  09:39      0.175
  T4                       0.273      55     0     0         0.415      83       0  07:15      0.072
  T5                       0.284      57     0     0         0.500     100       0  06:31      0.039
  T6                       0.180      30     0     0         0.460      77       0  08:55      0.153
  
  
  ***********************
  Outfall Loading Summary
  ***********************
  
  -----------------------------------------------------------
                         Flow       Avg       Max       Total
                         Freq      Flow      Flow      Volume
  Outfall Node           Pcnt       CMS       CMS    10^6 ltr
  -----------------------------------------------------------
  Out_to_WWTP           99.63     0.217     0.271      14.784
  -----------------------------------------------------------
  System                99.63     0.217     0.271      14.784
  
  
  ********************
  Link Flow Summary
  ********************
  
  -----------------------------------------------------------------------------
                                 Maximum  Time of Max   Maximum    Max/    Max/
                                  |Flow|   Occurrence   |Veloc|    Full    Full
  Link                 Type          CMS  days hr:min     m/sec    Flow   Depth
  -----------------------------------------------------------------------------
  C1                   CONDUIT     0.039     0  07:11      1.12    0.01    0.12
  C10                  CONDUIT     0.352     0  02:57      1.87    0.04    0.56
  C11                  CONDUIT     0.273     0  07:25      2.10    0.01    0.10
  C12                  CONDUIT     0.151     0  09:11      1.37    0.01    0.10
  C13                  CONDUIT     0.576     0  02:53      1.59    0.03    0.56
  C14                  CONDUIT     0.271     0  04:08      2.08    0.02    0.09
  C15                  CONDUIT     0.302     0  02:50      2.65    0.96    0.67
  C16                  CONDUIT     0.297     0  02:51      1.50    0.03    0.11
  C17                  CONDUIT     0.523     0  02:50      2.53    0.03    0.12
  C18                  CONDUIT     0.314     0  02:56      3.12    0.01    0.53
  C19                  CONDUIT     0.119     0  07:10      1.19    0.04    0.19
  C2                   CONDUIT     0.072     0  07:22      1.74    0.08    0.23
  C20                  CONDUIT     0.491     0  02:55      3.15    0.02    0.11
  C21                  CONDUIT     0.156     0  02:55      1.76    0.90    0.57
  C22                  CONDUIT     0.155     0  02:56      1.46    0.07    0.26
  C23                  CONDUIT     0.690     0  02:58      1.38    0.08    0.59
  C3                   CONDUIT     0.177     0  08:43      2.21    0.07    0.17
  C4                   CONDUIT     0.235     0  02:55      3.04    0.06    0.58
  C5                   CONDUIT     0.057     0  03:00      1.38    0.97    0.87
  C6                   CONDUIT     0.056     0  03:01      1.26    0.89    0.60
  C7                   CONDUIT     0.129     0  03:00      1.61    0.03    0.56
  C8                   CONDUIT     0.076     0  02:55      1.32    0.96    0.70
  C9                   CONDUIT     0.075     0  02:57      1.14    0.25    0.37
  V1                   ORIFICE     0.271     0  04:06                      1.00
  V2                   ORIFICE     0.121     0  07:10                      1.00
  V3                   ORIFICE     0.175     0  09:39                      1.00
  V4                   ORIFICE     0.072     0  07:15                      1.00
  V5                   ORIFICE     0.039     0  06:32                      1.00
  V6                   ORIFICE     0.153     0  08:55                      1.00
  
  
  ***************************
  Flow Classification Summary
  ***************************
  
  -------------------------------------------------------------------------------------
                      Adjusted    ---------- Fraction of Time in Flow Class ---------- 
                       /Actual         Up    Down  Sub   Sup   Up    Down  Norm  Inlet 
  Conduit               Length    Dry  Dry   Dry   Crit  Crit  Crit  Crit  Ltd   Ctrl  
  -------------------------------------------------------------------------------------
  C1                      1.00   0.00  0.00  0.00  0.77  0.23  0.00  0.00  0.98  0.00
  C10                     1.00   0.00  0.00  0.00  0.89  0.11  0.00  0.00  0.99  0.00
  C11                     1.00   0.00  0.00  0.00  0.18  0.82  0.00  0.00  1.00  0.00
  C12                     1.00   0.00  0.00  0.00  0.33  0.67  0.00  0.00  0.79  0.00
  C13                     1.00   0.00  0.00  0.00  0.96  0.04  0.00  0.00  0.84  0.00
  C14                     1.00   0.00  0.00  0.00  0.00  0.99  0.00  0.00  0.52  0.00
  C15                     1.00   0.00  0.00  0.00  0.00  1.00  0.00  0.00  0.00  0.00
  C16                     1.00   0.00  0.00  0.00  0.58  0.42  0.00  0.00  0.41  0.00
  C17                     1.00   0.00  0.00  0.00  0.52  0.48  0.00  0.00  0.98  0.00
  C18                     1.00   0.00  0.00  0.00  0.98  0.02  0.00  0.00  0.99  0.00
  C19                     1.00   0.00  0.00  0.00  0.99  0.01  0.00  0.00  1.00  0.00
  C2                      1.00   0.00  0.00  0.00  0.87  0.13  0.00  0.00  0.99  0.00
  C20                     1.00   0.00  0.00  0.00  0.68  0.32  0.00  0.00  0.99  0.00
  C21                     1.00   0.00  0.00  0.00  0.00  1.00  0.00  0.00  0.00  0.00
  C22                     1.00   0.00  0.00  0.00  0.93  0.07  0.00  0.00  1.00  0.00
  C23                     1.00   0.00  0.00  0.00  0.97  0.03  0.00  0.00  0.98  0.00
  C3                      1.00   0.00  0.00  0.00  0.02  0.98  0.00  0.00  0.15  0.00
  C4                      1.00   0.00  0.00  0.00  0.99  0.01  0.00  0.00  0.99  0.00
  C5                      1.00   0.00  0.00  0.00  0.91  0.09  0.00  0.00  0.99  0.00
  C6                      1.00   0.00  0.00  0.00  0.00  1.00  0.00  0.00  0.00  0.00
  C7                      1.00   0.00  0.00  0.00  0.98  0.02  0.00  0.00  0.99  0.00
  C8                      1.00   0.00  0.00  0.00  0.22  0.78  0.00  0.00  0.00  0.00
  C9                      1.00   0.00  0.00  0.00  1.00  0.00  0.00  0.00  1.00  0.00
  
  
  *************************
  Conduit Surcharge Summary
  *************************
  
  ----------------------------------------------------------------------------
                                                           Hours        Hours 
                         --------- Hours Full --------   Above Full   Capacity
  Conduit                Both Ends  Upstream  Dnstream   Normal Flow   Limited
  ----------------------------------------------------------------------------
  C10                         0.01      0.01      8.33      0.01         0.01
  C13                         0.01      0.01     12.43      0.01         0.01
  C18                         0.01      0.01     15.80      0.01         0.01
  C23                         0.01      0.01     16.14      0.01         0.01
  C4                          0.01      0.01     16.30      0.01         0.01
  C7                          0.01      0.01     16.24      0.01         0.01
  

  Analysis begun on:  Wed Feb  9 21:54:42 2022
  Analysis ended on:  Wed Feb  9 21:54:45 2022
  Total elapsed time: 00:00:03