
  EPA STORM WATER MANAGEMENT MODEL - VERSION 5.1 (Build 5.3.0.dev0)
  --------------------------------------------------------------

  
  *********************************************************
  NOTE: The summary statistics displayed in this report are
  based on results found at every computational time step,  
  not just on results from each reporting time step.
  *********************************************************
  
  ****************
  Analysis Options
  ****************
  Flow Units ............... CMS
  Process Models:
    Rainfall/Runoff ........ YES
    RDII ................... NO
    Snowmelt ............... NO
    Groundwater ............ NO
    Flow Routing ........... YES
    Ponding Allowed ........ NO
    Water Quality .......... NO
  Infiltration Method ...... HORTON
  Flow Routing Method ...... DYNWAVE
  Surcharge Method ......... EXTRAN
  Starting Date ............ 01/07/2008 13:55:00
  Ending Date .............. 01/08/2008 02:35:00
  Antecedent Dry Days ...... 0.0
  Report Time Step ......... 00:05:00
  Wet Time Step ............ 00:05:00
  Dry Time Step ............ 01:00:00
  Routing Time Step ........ 30.00 sec
  Variable Time Step ....... YES
  Maximum Trials ........... 8
  Number of Threads ........ 1
  Head Tolerance ........... 0.001500 m
  
  
  **************************        Volume         Depth
  Runoff Quantity Continuity     hectare-m            mm
  **************************     ---------       -------
  Total Precipitation ......         1.646         9.133
  Evaporation Loss .........         0.000         0.000
  Infiltration Loss ........         0.000         0.000
  Surface Runoff ...........         1.613         8.951
  Final Storage ............         0.035         0.192
  Continuity Error (%) .....        -0.109
  
  
  **************************        Volume        Volume
  Flow Routing Continuity        hectare-m      10^6 ltr
  **************************     ---------     ---------
  Dry Weather Inflow .......         0.312         3.123
  Wet Weather Inflow .......         1.613        16.128
  Groundwater Inflow .......         0.000         0.000
  RDII Inflow ..............         0.000         0.000
  External Inflow ..........         0.000         0.000
  External Outflow .........         1.067        10.673
  Flooding Loss ............         0.185         1.850
  Evaporation Loss .........         0.000         0.000
  Exfiltration Loss ........         0.000         0.000
  Initial Stored Volume ....         0.000         0.000
  Final Stored Volume ......         0.536         5.361
  Continuity Error (%) .....         7.097
  
  
  *************************
  Highest Continuity Errors
  *************************
  Node T2 (29.52%)
  Node T4 (17.07%)
  Node T5 (11.31%)
  Node T3 (10.52%)
  Node T1 (5.31%)
  
  
  ***************************
  Time-Step Critical Elements
  ***************************
  Link C15 (51.65%)
  
  
  ********************************
  Highest Flow Instability Indexes
  ********************************
  Link C13 (9)
  Link C23 (3)
  Link C11 (3)
  Link V3 (3)
  Link C3 (2)
  
  
  *************************
  Routing Time Step Summary
  *************************
  Minimum Time Step           :     0.20 sec
  Average Time Step           :    25.90 sec
  Maximum Time Step           :    30.00 sec
  Percent in Steady State     :     1.04
  Average Iterations per Step :     2.03
  Percent Not Converging      :     0.00
  
  
  ***************************
  Subcatchment Runoff Summary
  ***************************
  
  ------------------------------------------------------------------------------------------------------------------------------
                            Total      Total      Total      Total     Imperv       Perv      Total       Total     Peak  Runoff
                           Precip      Runon       Evap      Infil     Runoff     Runoff     Runoff      Runoff   Runoff   Coeff
  Subcatchment                 mm         mm         mm         mm         mm         mm         mm    10^6 ltr      CMS
  ------------------------------------------------------------------------------------------------------------------------------
  SC01                       7.45       0.00       0.00       0.00       7.33       0.00       7.33        2.42     0.19   0.984
  SC010                      7.45       0.00       0.00       0.00       7.31       0.00       7.31        0.86     0.06   0.981
  SC02                      10.46       0.00       0.00       0.00      10.34       0.00      10.34        2.35     0.20   0.989
  SC03                       9.69       0.00       0.00       0.00       9.60       0.00       9.60        1.73     0.16   0.991
  SC04                      10.46       0.00       0.00       0.00      10.28       0.00      10.28        0.71     0.06   0.982
  SC05                       7.45       0.00       0.00       0.00       7.33       0.00       7.33        1.14     0.09   0.983
  SC06                       9.90       0.00       0.00       0.00       9.50       0.00       9.50        3.09     0.20   0.959
  SC07                      10.46       0.00       0.00       0.00      10.28       0.00      10.28        0.49     0.04   0.982
  SC08                       9.69       0.00       0.00       0.00       9.56       0.00       9.56        2.68     0.19   0.987
  SC09                       9.90       0.00       0.00       0.00       9.57       0.00       9.57        0.66     0.05   0.967
  
  
  ******************
  Node Depth Summary
  ******************
  
  ---------------------------------------------------------------------------------
                                 Average  Maximum  Maximum  Time of Max    Reported
                                   Depth    Depth      HGL   Occurrence   Max Depth
  Node                 Type       Meters   Meters   Meters  days hr:min      Meters
  ---------------------------------------------------------------------------------
  CSO10                JUNCTION     0.11     0.20    30.20     0  03:35        0.20
  CSO7                 JUNCTION     0.09     0.17    34.17     0  01:30        0.17
  CSO8                 JUNCTION     0.13     0.28    32.28     0  00:40        0.27
  CSO9                 JUNCTION     0.10     0.20    40.20     0  05:11        0.19
  J1                   JUNCTION     0.06     0.11    34.11     0  00:51        0.11
  J10                  JUNCTION     0.09     0.19    29.19     0  00:43        0.18
  J11                  JUNCTION     0.10     0.19    31.19     0  00:46        0.19
  J12                  JUNCTION     0.47     1.01    27.01     0  05:50        1.00
  J13                  JUNCTION     0.06     0.13    29.13     0  01:16        0.13
  J14                  JUNCTION     0.15     0.19    20.19     0  05:38        0.19
  J15                  JUNCTION     0.18     0.24    15.24     0  04:36        0.24
  J16                  JUNCTION     0.06     0.11    30.11     0  00:51        0.11
  J17                  JUNCTION     0.06     0.14    20.14     0  05:20        0.14
  J18                  JUNCTION     0.05     0.09    29.09     0  00:56        0.09
  J19                  JUNCTION     0.15     0.17     8.17     0  03:50        0.17
  J2                   JUNCTION     0.06     0.07    25.07     0  06:02        0.07
  J3                   JUNCTION     0.12     0.17    18.17     0  07:30        0.17
  J4                   JUNCTION     0.11     0.20    33.20     0  01:32        0.20
  J5                   JUNCTION     0.06     0.11    32.11     0  01:31        0.11
  J6                   JUNCTION     0.05     0.12    25.12     0  07:30        0.12
  J7                   JUNCTION     0.08     0.14    39.14     0  05:16        0.14
  J8                   JUNCTION     0.10     0.17    36.17     0  05:15        0.17
  J9                   JUNCTION     0.12     0.16    29.16     0  05:23        0.16
  Out_to_WWTP          OUTFALL      0.15     0.17     6.17     0  08:24        0.17
  T1                   STORAGE      3.94     5.00    15.00     0  03:49        5.00
  T2                   STORAGE      3.38     4.48    25.48     0  07:09        4.48
  T3                   STORAGE      3.65     5.00    27.00     0  05:23        5.00
  T4                   STORAGE      3.72     5.00    32.00     0  04:44        5.00
  T5                   STORAGE      2.62     4.22    31.22     0  06:00        4.22
  T6                   STORAGE      2.40     5.00    36.00     0  05:06        5.00
  
  
  *******************
  Node Inflow Summary
  *******************
  
  -------------------------------------------------------------------------------------------------
                                  Maximum  Maximum                  Lateral       Total        Flow
                                  Lateral    Total  Time of Max      Inflow      Inflow     Balance
                                   Inflow   Inflow   Occurrence      Volume      Volume       Error
  Node                 Type           CMS      CMS  days hr:min    10^6 ltr    10^6 ltr     Percent
  -------------------------------------------------------------------------------------------------
  CSO10                JUNCTION     0.064    0.064     0  03:35       0.972       0.972      -0.011
  CSO7                 JUNCTION     0.046    0.046     0  01:30       0.724       0.724       0.003
  CSO8                 JUNCTION     0.202    0.202     0  00:40        2.83        2.83      -0.042
  CSO9                 JUNCTION     0.052    0.052     0  05:10       0.819        0.82      -0.021
  J1                   JUNCTION     0.104    0.104     0  00:50         1.6         1.6      -0.160
  J10                  JUNCTION     0.171    0.361     0  00:41        2.04        4.88      -0.302
  J11                  JUNCTION     0.000    0.202     0  00:41           0        2.83      -0.152
  J12                  JUNCTION     0.000    0.482     0  04:52           0        9.39       0.053
  J13                  JUNCTION     0.216    0.216     0  01:15        2.73        2.73      -0.367
  J14                  JUNCTION     0.000    0.190     0  05:28           0        6.17       0.248
  J15                  JUNCTION     0.000    0.534     0  04:35           0          13       0.570
  J16                  JUNCTION     0.209    0.209     0  00:50        2.87        2.87      -0.119
  J17                  JUNCTION     0.000    0.127     0  05:16           0        1.13      -0.113
  J18                  JUNCTION     0.000    0.063     0  03:36           0       0.973      -0.076
  J19                  JUNCTION     0.000    0.271     0  03:49           0        10.7       0.110
  J2                   JUNCTION     0.000    0.036     0  06:00           0        1.26       0.280
  J3                   JUNCTION     0.000    0.302     0  07:30           0         8.1       0.566
  J4                   JUNCTION     0.000    0.046     0  01:30           0       0.724       0.078
  J5                   JUNCTION     0.059    0.104     0  01:30       0.813        1.54      -0.119
  J6                   JUNCTION     0.000    0.080     0  05:28           0       0.698       0.934
  J7                   JUNCTION     0.000    0.052     0  05:11           0        0.82       0.082
  J8                   JUNCTION     0.229    0.280     0  05:15        3.85        4.68      -0.135
  J9                   JUNCTION     0.000    0.175     0  05:06           0        4.45      -0.222
  Out_to_WWTP          OUTFALL      0.000    0.271     0  03:50           0        10.7       0.000
  T1                   STORAGE      0.000    0.512     0  04:36           0          13       5.604
  T2                   STORAGE      0.000    0.215     0  01:16           0        2.74      41.877
  T3                   STORAGE      0.000    0.624     0  04:29           0        9.39      11.753
  T4                   STORAGE      0.000    0.103     0  01:31           0        1.54      20.581
  T5                   STORAGE      0.000    0.104     0  00:51           0         1.6      12.747
  T6                   STORAGE      0.000    0.279     0  05:16           0        4.68       0.190
  
  
  **********************
  Node Surcharge Summary
  **********************
  
  No nodes were surcharged.
  
  
  *********************
  Node Flooding Summary
  *********************
  
  Flooding refers to all water that overflows a node, whether it ponds or not.
  --------------------------------------------------------------------------
                                                             Total   Maximum
                                 Maximum   Time of Max       Flood    Ponded
                        Hours       Rate    Occurrence      Volume     Depth
  Node                 Flooded       CMS   days hr:min    10^6 ltr    Meters
  --------------------------------------------------------------------------
  T1                      4.14     0.241      0  04:36       1.015     0.000
  T3                      1.13     0.328      0  05:31       0.399     0.000
  T4                      2.40     0.052      0  05:16       0.221     0.000
  T6                      0.66     0.216      0  05:29       0.214     0.000
  
  
  **********************
  Storage Volume Summary
  **********************
  
  --------------------------------------------------------------------------------------------------
                         Average     Avg  Evap Exfil       Maximum     Max    Time of Max    Maximum
                          Volume    Pcnt  Pcnt  Pcnt        Volume    Pcnt     Occurrence    Outflow
  Storage Unit           1000 m3    Full  Loss  Loss       1000 m3    Full    days hr:min        CMS
  --------------------------------------------------------------------------------------------------
  T1                       0.552      79     0     0         0.700     100       0  03:49      0.271
  T2                       0.676      68     0     0         0.895      90       0  07:09      0.127
  T3                       1.895      73     0     0         2.600     100       0  05:23      0.257
  T4                       0.372      74     0     0         0.500     100       0  04:44      0.080
  T5                       0.262      52     0     0         0.422      84       0  06:00      0.036
  T6                       0.288      48     0     0         0.600     100       0  05:06      0.175
  
  
  ***********************
  Outfall Loading Summary
  ***********************
  
  -----------------------------------------------------------
                         Flow       Avg       Max       Total
                         Freq      Flow      Flow      Volume
  Outfall Node           Pcnt       CMS       CMS    10^6 ltr
  -----------------------------------------------------------
  Out_to_WWTP           99.49     0.231     0.271      10.673
  -----------------------------------------------------------
  System                99.49     0.231     0.271      10.673
  
  
  ********************
  Link Flow Summary
  ********************
  
  -----------------------------------------------------------------------------
                                 Maximum  Time of Max   Maximum    Max/    Max/
                                  |Flow|   Occurrence   |Veloc|    Full    Full
  Link                 Type          CMS  days hr:min     m/sec    Flow   Depth
  -----------------------------------------------------------------------------
  C1                   CONDUIT     0.036     0  06:02      1.01    0.01    0.12
  C10                  CONDUIT     0.279     0  05:16      1.81    0.03    0.56
  C11                  CONDUIT     0.294     0  07:31      2.15    0.01    0.10
  C12                  CONDUIT     0.175     0  05:23      1.14    0.01    0.29
  C13                  CONDUIT     0.624     0  04:29      2.24    0.04    0.75
  C14                  CONDUIT     0.271     0  03:50      2.08    0.02    0.09
  C15                  CONDUIT     0.202     0  00:41      2.43    0.64    0.51
  C16                  CONDUIT     0.200     0  00:46      1.33    0.02    0.09
  C17                  CONDUIT     0.360     0  00:43      2.25    0.02    0.29
  C18                  CONDUIT     0.215     0  01:16      3.17    0.01    0.53
  C19                  CONDUIT     0.125     0  05:20      1.35    0.04    0.19
  C2                   CONDUIT     0.078     0  07:30      1.81    0.09    0.24
  C20                  CONDUIT     0.207     0  00:51      3.22    0.01    0.08
  C21                  CONDUIT     0.063     0  03:36      1.44    0.36    0.33
  C22                  CONDUIT     0.062     0  00:56      1.05    0.03    0.20
  C23                  CONDUIT     0.512     0  04:36      1.35    0.06    0.58
  C3                   CONDUIT     0.193     0  05:38      2.27    0.07    0.18
  C4                   CONDUIT     0.104     0  00:51      3.10    0.03    0.55
  C5                   CONDUIT     0.046     0  01:30      1.34    0.78    0.73
  C6                   CONDUIT     0.045     0  01:33      1.21    0.72    0.52
  C7                   CONDUIT     0.103     0  01:31      1.51    0.03    0.55
  C8                   CONDUIT     0.052     0  05:11      1.23    0.65    0.53
  C9                   CONDUIT     0.051     0  05:16      0.99    0.17    0.32
  V1                   ORIFICE     0.271     0  03:49                      1.00
  V2                   ORIFICE     0.127     0  05:16                      1.00
  V3                   ORIFICE     0.190     0  05:28                      1.00
  V4                   ORIFICE     0.080     0  05:28                      1.00
  V5                   ORIFICE     0.036     0  06:00                      1.00
  V6                   ORIFICE     0.175     0  05:06                      1.00
  
  
  ***************************
  Flow Classification Summary
  ***************************
  
  -------------------------------------------------------------------------------------
                      Adjusted    ---------- Fraction of Time in Flow Class ---------- 
                       /Actual         Up    Down  Sub   Sup   Up    Down  Norm  Inlet 
  Conduit               Length    Dry  Dry   Dry   Crit  Crit  Crit  Crit  Ltd   Ctrl  
  -------------------------------------------------------------------------------------
  C1                      1.00   0.00  0.00  0.00  0.68  0.32  0.00  0.00  0.97  0.00
  C10                     1.00   0.00  0.00  0.00  0.91  0.09  0.00  0.00  0.99  0.00
  C11                     1.00   0.00  0.00  0.00  0.28  0.72  0.00  0.00  1.00  0.00
  C12                     1.00   0.00  0.00  0.00  0.90  0.09  0.00  0.00  0.99  0.00
  C13                     1.00   0.00  0.00  0.00  0.95  0.05  0.00  0.00  0.35  0.00
  C14                     1.00   0.00  0.00  0.00  0.01  0.99  0.00  0.00  0.30  0.00
  C15                     1.00   0.00  0.00  0.00  0.00  1.00  0.00  0.00  0.00  0.00
  C16                     1.00   0.00  0.00  0.00  0.44  0.56  0.00  0.00  0.49  0.00
  C17                     1.00   0.00  0.00  0.00  0.62  0.38  0.00  0.00  0.98  0.00
  C18                     1.00   0.00  0.00  0.00  0.96  0.04  0.00  0.00  0.99  0.00
  C19                     1.00   0.00  0.00  0.00  0.91  0.09  0.00  0.00  1.00  0.00
  C2                      1.00   0.00  0.00  0.00  0.92  0.07  0.00  0.00  1.00  0.00
  C20                     1.00   0.00  0.00  0.00  0.48  0.52  0.00  0.00  0.99  0.00
  C21                     1.00   0.00  0.00  0.00  0.00  1.00  0.00  0.00  0.00  0.00
  C22                     1.00   0.00  0.00  0.00  0.93  0.07  0.00  0.00  1.00  0.00
  C23                     1.00   0.00  0.00  0.00  0.94  0.06  0.00  0.00  0.97  0.00
  C3                      1.00   0.00  0.00  0.00  0.02  0.98  0.00  0.00  0.21  0.00
  C4                      1.00   0.00  0.00  0.00  0.98  0.02  0.00  0.00  0.99  0.00
  C5                      1.00   0.00  0.00  0.00  0.94  0.06  0.00  0.00  0.99  0.00
  C6                      1.00   0.00  0.00  0.00  0.01  0.99  0.00  0.00  0.00  0.00
  C7                      1.00   0.00  0.00  0.00  0.97  0.03  0.00  0.00  0.98  0.00
  C8                      1.00   0.00  0.00  0.00  0.27  0.73  0.00  0.00  0.00  0.00
  C9                      1.00   0.00  0.00  0.00  1.00  0.00  0.00  0.00  1.00  0.00
  
  
  *************************
  Conduit Surcharge Summary
  *************************
  
  ----------------------------------------------------------------------------
                                                           Hours        Hours 
                         --------- Hours Full --------   Above Full   Capacity
  Conduit                Both Ends  Upstream  Dnstream   Normal Flow   Limited
  ----------------------------------------------------------------------------
  C10                         0.01      0.01      7.74      0.01         0.01
  C13                         0.01      0.01     10.77      0.01         0.01
  C18                         0.01      0.01     10.99      0.01         0.01
  C23                         0.01      0.01     11.36      0.01         0.01
  C4                          0.01      0.01     11.48      0.01         0.01
  C7                          0.01      0.01     11.49      0.01         0.01
  

  Analysis begun on:  Wed Feb  9 22:34:08 2022
  Analysis ended on:  Wed Feb  9 22:34:09 2022
  Total elapsed time: 00:00:01