
  OWA STORM WATER MANAGEMENT MODEL - VERSION v5.1.14 (OWA 2022-07-31)
  --------------------------------------------------------------

  Bogot¨¢, Colombia. 
  
  WARNING 04: minimum elevation drop used for Conduit PLB86087
  WARNING 04: minimum elevation drop used for Conduit PLT81685
  WARNING 04: minimum elevation drop used for Conduit PLT81686
  WARNING 04: minimum elevation drop used for Conduit PLT82321
  WARNING 04: minimum elevation drop used for Conduit PLT82322
  WARNING 04: minimum elevation drop used for Conduit PLT82450
  WARNING 04: minimum elevation drop used for Conduit PLT82451
  WARNING 02: maximum depth increased for Node CRE01
  WARNING 02: maximum depth increased for Node CRE02
  WARNING 02: maximum depth increased for Node CRE05
  WARNING 02: maximum depth increased for Node PMC98478
  WARNING 02: maximum depth increased for Node PMP92838
  WARNING 02: maximum depth increased for Node PMP92850
  WARNING 02: maximum depth increased for Node PMP92863GA15
  WARNING 02: maximum depth increased for Node PMP92917
  WARNING 02: maximum depth increased for Node PMP92942
  WARNING 02: maximum depth increased for Node PMP92945
  WARNING 02: maximum depth increased for Node PMP92949
  WARNING 02: maximum depth increased for Node PMP92949GB7
  WARNING 02: maximum depth increased for Node PMP92955GA17
  WARNING 02: maximum depth increased for Node PMP92973
  WARNING 02: maximum depth increased for Node PMP92979
  WARNING 02: maximum depth increased for Node PMP93012
  WARNING 02: maximum depth increased for Node PMP93012GA12
  WARNING 02: maximum depth increased for Node PMP93016
  WARNING 02: maximum depth increased for Node PMP93019
  WARNING 02: maximum depth increased for Node PMP93049
  WARNING 02: maximum depth increased for Node PMP930512
  WARNING 02: maximum depth increased for Node PMP930512GB10
  WARNING 02: maximum depth increased for Node PMP93051GB9
  WARNING 02: maximum depth increased for Node PMP93088
  
  *********************************************************
  NOTE: The summary statistics displayed in this report are
  based on results found at every computational time step,  
  not just on results from each reporting time step.
  *********************************************************
  
  ****************
  Analysis Options
  ****************
  Flow Units ............... LPS
  Process Models:
    Rainfall/Runoff ........ YES
    RDII ................... NO
    Snowmelt ............... NO
    Groundwater ............ NO
    Flow Routing ........... YES
    Ponding Allowed ........ NO
    Water Quality .......... NO
  Infiltration Method ...... HORTON
  Flow Routing Method ...... DYNWAVE
  Surcharge Method ......... EXTRAN
  Starting Date ............ 08/23/2013 00:00:00
  Ending Date .............. 08/23/2013 04:00:00
  Antecedent Dry Days ...... 0.0
  Report Time Step ......... 00:01:00
  Wet Time Step ............ 00:05:00
  Dry Time Step ............ 01:00:00
  Routing Time Step ........ 30.00 sec
  Variable Time Step ....... YES
  Maximum Trials ........... 8
  Number of Threads ........ 1
  Head Tolerance ........... 0.001500 m
  
  
  **************************        Volume         Depth
  Runoff Quantity Continuity     hectare-m            mm
  **************************     ---------       -------
  Total Precipitation ......         6.544        80.785
  Evaporation Loss .........         0.000         0.000
  Infiltration Loss ........         0.136         1.673
  Surface Runoff ...........         6.438        79.482
  Final Storage ............         0.009         0.106
  Continuity Error (%) .....        -0.589
  
  
  **************************        Volume        Volume
  Flow Routing Continuity        hectare-m      10^6 ltr
  **************************     ---------     ---------
  Dry Weather Inflow .......         0.000         0.000
  Wet Weather Inflow .......         6.438        64.379
  Groundwater Inflow .......         0.000         0.000
  RDII Inflow ..............         0.000         0.000
  External Inflow ..........         0.000         0.000
  External Outflow .........         1.785        17.851
  Flooding Loss ............         4.499        44.989
  Evaporation Loss .........         0.000         0.000
  Exfiltration Loss ........         0.000         0.000
  Initial Stored Volume ....         0.000         0.000
  Final Stored Volume ......         0.118         1.179
  Continuity Error (%) .....         0.559
  
  
  *************************
  Highest Continuity Errors
  *************************
  Node PMP93100GA5 (-105.12%)
  Node PMP92828GB20 (-77.57%)
  Node PMP92906GB1 (-60.80%)
  Node PMP93008GA9 (31.63%)
  Node PMP63314 (30.07%)
  
  
  ***************************
  Time-Step Critical Elements
  ***************************
  Link PLT85976 (78.15%)
  Link PLB86097 (17.23%)
  Link PLT85989 (1.20%)
  Link PLT85739 (1.03%)
  
  
  ********************************
  Highest Flow Instability Indexes
  ********************************
  Link GB9 (57)
  Link PLT100882 (55)
  Link PLT86026 (50)
  Link GA17 (49)
  Link PLT85630 (47)
  
  
  *************************
  Routing Time Step Summary
  *************************
  Minimum Time Step           :     0.50 sec
  Average Time Step           :     0.75 sec
  Maximum Time Step           :    30.00 sec
  Percent in Steady State     :     0.00
  Average Iterations per Step :     6.87
  Percent Not Converging      :    72.21
  
  
  ***************************
  Subcatchment Runoff Summary
  ***************************
  
  ------------------------------------------------------------------------------------------------------------------------------
                            Total      Total      Total      Total     Imperv       Perv      Total       Total     Peak  Runoff
                           Precip      Runon       Evap      Infil     Runoff     Runoff     Runoff      Runoff   Runoff   Coeff
  Subcatchment                 mm         mm         mm         mm         mm         mm         mm    10^6 ltr      LPS
  ------------------------------------------------------------------------------------------------------------------------------
  C-2                       80.78       0.00       0.00       1.97      20.30      58.49      78.79        3.15  1982.85   0.975
  C-3                       80.78       0.00       0.00       1.97      20.31      57.86      78.18        4.69  2663.63   0.968
  C-4                       80.79       0.00       0.00       1.62      20.26      59.39      79.65        1.04   777.73   0.986
  C-5                       80.79       0.00       0.00       1.62      20.26      59.39      79.65        1.04   777.73   0.986
  C-6                       80.79       0.00       0.00       1.62      20.26      59.39      79.65        1.04   777.73   0.986
  C-7                       80.78       0.00       0.00       1.69      20.26      59.31      79.57        1.19   883.37   0.985
  C-8                       80.78       0.00       0.00       1.85      20.27      59.12      79.39        1.59  1133.86   0.983
  C-9                       80.78       0.00       0.00       1.97      20.28      58.95      79.23        1.98  1367.01   0.981
  C-10                      80.78       0.00       0.00       1.87      20.27      59.08      79.36        1.67  1181.80   0.982
  C-11                      80.78       0.00       0.00       1.79      20.28      59.19      79.47        1.43  1035.88   0.984
  C-12                      80.78       0.00       0.00       1.79      20.28      59.19      79.47        1.43  1035.88   0.984
  C-13                      80.78       0.00       0.00       1.69      20.26      59.31      79.57        1.19   883.37   0.985
  C-14                      80.79       0.00       0.00       1.62      20.26      59.39      79.65        1.04   777.73   0.986
  C-15                      80.78       0.00       0.00       1.75      20.27      59.23      79.49        1.35   985.80   0.984
  C-16                      80.79       0.00       0.00       1.19      20.21      59.84      80.06        0.24   193.92   0.991
  C-17                      80.79       0.00       0.00       1.43      20.24      59.61      79.86        0.64   498.28   0.989
  C-18                      80.79       0.00       0.00       1.59      20.26      59.43      79.69        0.96   723.66   0.986
  C-19                      80.79       0.00       0.00       1.66      20.26      59.35      79.61        1.11   830.96   0.985
  C-20                      80.79       0.00       0.00       1.66      20.26      59.35      79.61        1.11   830.96   0.985
  C-21                      80.79       0.00       0.00       1.19      20.21      59.84      80.06        0.24   193.92   0.991
  C-22                      80.79       0.00       0.00       1.59      20.26      59.43      79.69        0.96   723.66   0.986
  C-23                      80.78       0.00       0.00       1.69      20.26      59.31      79.57        1.19   883.37   0.985
  C-24                      80.78       0.00       0.00       1.69      20.26      59.31      79.57        1.19   883.37   0.985
  C-25                      80.79       0.00       0.00       1.59      20.26      59.43      79.69        0.96   723.66   0.986
  C-26                      80.78       0.00       0.00       1.69      20.26      59.31      79.57        1.19   883.37   0.985
  C-27                      80.78       0.00       0.00       1.69      20.26      59.31      79.57        1.19   883.37   0.985
  C-28                      80.78       0.00       0.00       1.69      20.26      59.31      79.57        1.19   883.37   0.985
  C-29                      80.78       0.00       0.00       1.79      20.28      59.19      79.47        1.43  1035.88   0.984
  C-30                      80.78       0.00       0.00       1.79      20.28      59.19      79.47        1.43  1035.88   0.984
  C-31                      80.79       0.00       0.00       1.19      20.21      59.84      80.06        0.24   193.92   0.991
  C-36                      80.79       0.00       0.00       1.59      20.26      59.43      79.69        0.96   723.66   0.986
  C-37                      80.78       0.00       0.00       1.30      20.23      59.76      79.99        0.40   318.86   0.990
  C-38                      80.79       0.00       0.00       1.43      20.24      59.61      79.86        0.64   498.28   0.989
  C-40                      80.78       0.00       0.00       1.47      20.25      59.57      79.81        0.72   556.05   0.988
  C-41                      80.78       0.00       0.00       1.30      20.23      59.76      79.99        0.40   318.86   0.990
  C-42                      80.78       0.00       0.00       1.30      20.23      59.76      79.99        0.40   318.86   0.990
  C-43                      80.78       0.00       0.00       1.30      20.23      59.76      79.99        0.40   318.86   0.990
  C-44                      80.79       0.00       0.00       1.34      20.23      59.71      79.95        0.48   379.72   0.990
  C-45                      80.79       0.00       0.00       1.34      20.23      59.71      79.95        0.48   379.72   0.990
  C-46                      80.78       0.00       0.00       1.47      20.25      59.57      79.81        0.72   556.05   0.988
  C-47                      80.79       0.00       0.00       1.43      20.24      59.61      79.86        0.64   498.28   0.989
  C-48                      80.78       0.00       0.00       1.30      20.23      59.76      79.99        0.40   318.86   0.990
  C-49                      80.79       0.00       0.00       1.59      20.26      59.43      79.69        0.96   723.66   0.986
  C-50                      80.78       0.00       0.00       1.51      20.25      59.52      79.77        0.80   612.85   0.987
  C-51                      80.78       0.00       0.00       1.47      20.25      59.57      79.81        0.72   556.05   0.988
  C-52                      80.79       0.00       0.00       1.59      20.26      59.43      79.69        0.96   723.66   0.986
  C-53                      80.78       0.00       0.00       1.51      20.25      59.52      79.77        0.80   612.85   0.987
  C-54                      80.78       0.00       0.00       1.51      20.25      59.52      79.77        0.80   612.85   0.987
  C-55                      80.78       0.00       0.00       1.85      20.27      59.12      79.39        1.59  1133.86   0.983
  C-56                      80.79       0.00       0.00       1.34      20.23      59.71      79.95        0.48   379.72   0.990
  C-57                      80.79       0.00       0.00       1.66      20.26      59.35      79.61        1.11   830.96   0.985
  C-58                      80.78       0.00       0.00       1.55      20.25      59.47      79.73        0.88   668.71   0.987
  C-59                      80.78       0.00       0.00       1.69      20.26      59.31      79.57        1.19   883.37   0.985
  C-60                      80.78       0.00       0.00       1.55      20.25      59.47      79.73        0.88   668.71   0.987
  C-61                      80.78       0.00       0.00       1.82      20.27      59.15      79.42        1.51  1085.22   0.983
  C-62                      80.78       0.00       0.00       1.47      20.25      59.57      79.81        0.72   556.05   0.988
  C-63                      80.78       0.00       0.00       1.47      20.25      59.57      79.81        0.72   556.05   0.988
  C-65                      80.79       0.00       0.00       1.43      20.24      59.61      79.86        0.64   498.28   0.989
  C-66                      80.79       0.00       0.00       1.39      20.24      59.66      79.90        0.56   439.52   0.989
  C-67                      80.79       0.00       0.00       1.25      20.22      59.81      80.03        0.32   256.93   0.991
  C-68                      80.78       0.00       0.00       1.30      20.23      59.76      79.99        0.40   318.86   0.990
  C-69                      80.79       0.00       0.00       1.43      20.24      59.61      79.86        0.64   498.28   0.989
  C-70                      80.78       0.00       0.00       1.51      20.25      59.52      79.77        0.80   612.85   0.987
  C-71                      80.78       0.00       0.00       1.69      20.26      59.31      79.57        1.19   883.37   0.985
  
  
  ******************
  Node Depth Summary
  ******************
  
  ---------------------------------------------------------------------------------
                                 Average  Maximum  Maximum  Time of Max    Reported
                                   Depth    Depth      HGL   Occurrence   Max Depth
  Node                 Type       Meters   Meters   Meters  days hr:min      Meters
  ---------------------------------------------------------------------------------
  CRE01                JUNCTION     0.26     0.68  2547.96     0  00:57        0.00
  CRE02                JUNCTION     0.16     0.37  2548.30     0  00:57        0.00
  CRE03                JUNCTION     0.16     0.37  2549.13     0  00:56        0.00
  CRE04                JUNCTION     0.15     0.36  2549.13     0  00:56        0.00
  CRE05                JUNCTION     0.12     0.35  2549.43     0  01:26        0.00
  CRE06                JUNCTION     0.36     0.65  2570.44     0  00:44        0.00
  CRE07                JUNCTION     0.65     3.47  2551.82     0  00:42        0.00
  CRE08                JUNCTION     0.11     0.53  2557.28     0  01:21        0.00
  CRE09                JUNCTION     0.08     0.32  2587.86     0  00:45        0.00
  PMC98455             JUNCTION     0.10     0.36  2554.73     0  00:49        0.00
  PMC98457             JUNCTION     0.19     0.71  2554.70     0  00:50        0.00
  PMC98478             JUNCTION     0.39     1.16  2550.83     0  01:25        0.00
  PMCI106387           JUNCTION     0.93     1.50  2559.91     0  00:12        0.00
  PMCI106387GB22       JUNCTION     0.00     0.16  2558.57     0  02:20        0.00
  PMI105964            JUNCTION     0.01     0.08  2548.36     0  00:45        0.00
  PMI105971            JUNCTION     0.05     0.33  2548.91     0  00:43        0.00
  PMI106007            JUNCTION     0.47     1.47  2550.49     0  00:30        0.00
  PMI60590             JUNCTION     0.31     1.77  2548.57     0  00:37        0.00
  PMI92722             JUNCTION     0.00     0.00  2578.57     0  00:00        0.00
  PMI92729             JUNCTION     0.24     0.92  2554.93     0  00:27        0.00
  PMI92730             JUNCTION     0.37     1.31  2557.59     0  00:18        0.00
  PMI92731             JUNCTION     0.33     1.32  2556.75     0  00:32        0.00
  PMI92732             JUNCTION     0.86     2.90  2566.85     0  00:16        0.00
  PMI92733             JUNCTION     0.30     1.54  2552.53     0  00:33        0.00
  PMI92734             JUNCTION     0.28     2.74  2558.71     0  00:42        0.00
  PMI92735             JUNCTION     0.54     2.45  2566.12     0  00:14        0.00
  PMI92736             JUNCTION     0.34     1.38  2554.26     0  00:26        0.00
  PMI92737             JUNCTION     0.11     0.78  2554.38     0  00:41        0.00
  PMI92738             JUNCTION     0.16     0.48  2551.91     0  01:30        0.00
  PMI92739             JUNCTION     0.00     0.00  2554.82     0  00:00        0.00
  PMI92740             JUNCTION     0.24     1.20  2552.16     0  00:34        0.00
  PMI92741             JUNCTION     0.03     0.13  2553.72     0  00:51        0.00
  PMI92743             JUNCTION     0.20     1.46  2555.84     0  00:35        0.00
  PMI92744             JUNCTION     0.00     0.00  2580.81     0  00:00        0.00
  PMI92745             JUNCTION     0.44     1.29  2557.89     0  00:15        0.00
  PMI92747             JUNCTION     1.18     5.35  2582.40     0  00:22        0.00
  PMI92748             JUNCTION     0.46     1.48  2573.45     0  00:22        0.00
  PMI92749             JUNCTION     0.00     0.00  2552.93     0  00:00        0.00
  PMI92750             JUNCTION     0.00     0.00  2552.56     0  00:00        0.00
  PMI92751             JUNCTION     0.18     0.87  2555.23     0  00:34        0.00
  PMI92752             JUNCTION     0.00     0.00  2554.53     0  00:00        0.00
  PMI92753             JUNCTION     0.00     0.10  2557.41     0  00:44        0.00
  PMI92754             JUNCTION     0.70     1.38  2556.42     0  00:16        0.00
  PMI92755             JUNCTION     0.26     0.90  2554.54     0  00:24        0.00
  PMI92756             JUNCTION     0.00     0.00  2568.85     0  00:00        0.00
  PMI92757             JUNCTION     0.00     0.00  2554.96     0  00:00        0.00
  PMI92758             JUNCTION     0.02     0.94  2552.74     0  01:24        0.00
  PMI92759             JUNCTION     0.38     1.10  2554.65     0  00:22        0.00
  PMI92760             JUNCTION     0.37     1.47  2551.49     0  00:25        0.00
  PMI92761             JUNCTION     0.37     1.73  2553.19     0  00:28        0.00
  PMI92762             JUNCTION     0.37     1.58  2553.68     0  00:30        0.00
  PMI92763             JUNCTION     0.65     2.42  2557.05     0  00:13        0.00
  PMI92764             JUNCTION     0.40     2.06  2577.32     0  00:29        0.00
  PMI92765             JUNCTION     0.29     1.21  2553.56     0  00:27        0.00
  PMI92766             JUNCTION     0.46     1.53  2570.74     0  00:19        0.00
  PMI92767             JUNCTION     0.18     0.77  2556.61     0  00:28        0.00
  PMI92768             JUNCTION     0.26     0.92  2552.97     0  00:25        0.00
  PMI92770             JUNCTION     0.56     1.63  2552.26     0  00:20        0.00
  PMI92771             JUNCTION     0.00     0.00  2568.25     0  00:00        0.00
  PMI92772             JUNCTION     0.53     2.91  2562.08     0  00:29        0.00
  PMI92773             JUNCTION     0.00     0.00  2560.45     0  00:00        0.00
  PMI92774             JUNCTION     0.06     0.27  2575.85     0  00:45        0.00
  PMI92775             JUNCTION     0.07     1.90  2573.97     0  00:43        0.00
  PMI92776             JUNCTION     0.29     1.46  2552.54     0  00:29        0.00
  PMI92777             JUNCTION     0.00     0.00  2555.85     0  00:00        0.00
  PMI92778             JUNCTION     0.47     1.13  2554.29     0  00:24        0.00
  PMI92779             JUNCTION     0.00     0.00  2556.51     0  00:00        0.00
  PMI92780             JUNCTION     0.00     0.00  2556.74     0  00:00        0.00
  PMI92781             JUNCTION     0.16     1.38  2559.69     0  00:37        0.00
  PMI92782             JUNCTION     1.92     2.10  2555.41     0  00:14        0.00
  PMI92783             JUNCTION     0.47     1.34  2557.70     0  00:16        0.00
  PMI92784             JUNCTION     0.00     0.00  2569.15     0  00:00        0.00
  PMI92785             JUNCTION     0.29     1.32  2562.24     0  00:27        0.00
  PMI92786             JUNCTION     0.52     1.31  2561.97     0  00:20        0.00
  PMI92787             JUNCTION     0.00     0.00  2575.80     0  00:00        0.00
  PMI92788             JUNCTION     0.34     1.56  2553.79     0  00:31        0.00
  PMI92789             JUNCTION     0.33     1.21  2553.93     0  00:20        0.00
  PMI92790             JUNCTION     0.00     0.00  2580.68     0  00:00        0.00
  PMI92791             JUNCTION     0.52     2.23  2575.14     0  00:25        0.00
  PMI92792             JUNCTION     0.78     3.35  2559.96     0  00:30        0.00
  PMI92793             JUNCTION     0.26     0.92  2555.34     0  00:18        0.00
  PMI92794             JUNCTION     0.49     1.17  2551.87     0  00:26        0.00
  PMI92795             JUNCTION     0.00     0.00  2563.35     0  00:00        0.00
  PMI92796             JUNCTION     0.27     1.09  2556.29     0  00:22        0.00
  PMI92797             JUNCTION     0.00     0.00  2567.90     0  00:00        0.00
  PMI92799             JUNCTION     0.42     1.05  2552.76     0  00:21        0.00
  PMI92800             JUNCTION     0.29     2.21  2553.63     0  01:22        0.00
  PMI92801             JUNCTION     0.00     0.10  2552.45     0  00:32        0.00
  PMI92802             JUNCTION     0.00     0.02  2552.25     0  01:24        0.00
  PMI92803             JUNCTION     0.28     1.36  2552.39     0  00:28        0.00
  PMI92804             JUNCTION     0.33     1.21  2553.04     0  00:18        0.00
  PMI92806             JUNCTION     0.06     0.29  2554.59     0  00:30        0.00
  PMI92807             JUNCTION     0.01     0.03  2554.47     0  00:33        0.00
  PMI92808             JUNCTION     0.00     0.00  2558.47     0  00:00        0.00
  PMI92809             JUNCTION     0.19     0.71  2556.81     0  00:24        0.00
  PMI92810             JUNCTION     0.00     0.00  2553.16     0  00:00        0.00
  PMI92811             JUNCTION     0.21     0.70  2554.20     0  00:44        0.00
  PMI92812             JUNCTION     0.32     1.19  2555.14     0  00:28        0.00
  PMI92813             JUNCTION     0.00     0.00  2585.93     0  00:00        0.00
  PMI92819             JUNCTION     0.18     1.52  2551.64     0  00:34        0.00
  PMP105957            JUNCTION     0.02     0.14  2548.08     0  00:45        0.00
  PMP105960            JUNCTION     0.04     0.27  2548.08     0  00:57        0.00
  PMP105962            JUNCTION     0.29     0.91  2548.36     0  00:56        0.00
  PMP105970            JUNCTION     0.70     1.55  2548.87     0  00:57        0.00
  PMP106006            JUNCTION     0.69     2.14  2550.16     0  00:41        0.00
  PMP106082            JUNCTION     1.05     3.05  2551.23     0  00:41        0.00
  PMP106083            JUNCTION     0.66     1.74  2550.39     0  00:31        0.00
  PMP106084            JUNCTION     0.57     1.70  2550.52     0  00:32        0.00
  PMP106155            JUNCTION     0.58     0.91  2559.91     0  00:12        0.00
  PMP106384            JUNCTION     0.13     0.40  2556.89     0  01:25        0.00
  PMP106385            JUNCTION     0.77     1.11  2559.76     0  00:12        0.00
  PMP106386            JUNCTION     0.80     1.18  2559.78     0  00:12        0.00
  PMP108534            JUNCTION     0.16     1.53  2558.16     0  00:37        0.00
  PMP108535            JUNCTION     0.14     1.22  2558.40     0  00:37        0.00
  PMP108536            JUNCTION     0.14     1.18  2558.47     0  00:37        0.00
  PMP60972             JUNCTION     0.35     2.20  2552.00     0  01:21        0.00
  PMP62782             JUNCTION     0.64     2.20  2552.00     0  00:34        0.00
  PMP63233             JUNCTION     0.50     2.20  2552.00     0  01:22        0.00
  PMP63245             JUNCTION     0.32     1.22  2548.02     0  00:37        0.00
  PMP63246             JUNCTION     0.31     1.44  2548.24     0  00:37        0.00
  PMP63313             JUNCTION     0.16     0.23  2554.03     0  00:40        0.00
  PMP63314             JUNCTION     0.16     0.21  2554.01     0  00:40        0.00
  PMP63315             JUNCTION     0.16     0.21  2554.01     0  00:39        0.00
  PMP63316             JUNCTION     1.84     2.20  2554.00     0  00:31        0.00
  PMP92820             JUNCTION     0.51     1.21  2548.35     0  00:56        0.00
  PMP92821             JUNCTION     0.67     1.51  2548.81     0  00:55        0.00
  PMP92827             JUNCTION     0.37     1.28  2566.69     0  00:16        0.00
  PMP92828             JUNCTION     1.85     2.57  2570.32     0  00:18        0.00
  PMP92828GB20         JUNCTION     0.01     2.05  2569.80     0  02:50        0.00
  PMP92829             JUNCTION     0.95     2.04  2552.16     0  00:31        0.00
  PMP92830             JUNCTION     0.36     1.74  2553.12     0  00:44        0.00
  PMP92834             JUNCTION     0.41     1.53  2552.58     0  00:46        0.00
  PMP92838             JUNCTION     0.71     1.35  2552.08     0  01:24        0.00
  PMP92840             JUNCTION     0.16     0.35  2555.79     0  01:00        0.00
  PMP92841             JUNCTION     0.36     1.26  2554.69     0  00:26        0.00
  PMP92842             JUNCTION     0.30     1.21  2553.14     0  00:25        0.00
  PMP92843             JUNCTION     0.09     0.36  2555.82     0  01:25        0.00
  PMP92843GA3          JUNCTION     0.07     0.24  2555.70     0  00:52        0.00
  PMP92844             JUNCTION     0.10     0.30  2555.63     0  00:46        0.00
  PMP92845             JUNCTION     0.09     0.21  2556.51     0  00:37        0.00
  PMP92846             JUNCTION     0.11     0.78  2554.34     0  00:45        0.00
  PMP92847             JUNCTION     0.09     0.21  2557.83     0  00:36        0.00
  PMP92848             JUNCTION     0.08     0.38  2556.37     0  01:22        0.00
  PMP92849             JUNCTION     0.00     0.00  2556.49     0  00:00        0.00
  PMP92850             JUNCTION     0.46     1.22  2554.48     0  00:46        0.00
  PMP92852             JUNCTION     0.00     0.00  2552.43     0  00:00        0.00
  PMP92853             JUNCTION     0.14     0.44  2554.72     0  00:50        0.00
  PMP92853GB2          JUNCTION     0.14     0.42  2554.71     0  00:49        0.00
  PMP92854             JUNCTION     0.27     0.91  2554.51     0  00:45        0.00
  PMP92855             JUNCTION     0.07     0.52  2553.21     0  02:52        0.00
  PMP92856             JUNCTION     0.35     1.03  2554.68     0  00:50        0.00
  PMP92857             JUNCTION     0.13     1.14  2555.57     0  00:30        0.00
  PMP92859             JUNCTION     0.06     0.27  2561.15     0  00:45        0.00
  PMP92860             JUNCTION     0.71     2.54  2552.93     0  00:35        0.00
  PMP92861             JUNCTION     0.05     0.24  2563.43     0  00:45        0.00
  PMP92862             JUNCTION     0.08     1.72  2565.68     0  00:44        0.00
  PMP92863             JUNCTION     0.25     2.38  2563.79     0  00:18        0.00
  PMP92863GA15         JUNCTION     0.10     0.30  2561.71     0  00:20        0.00
  PMP92864             JUNCTION     0.11     0.31  2562.18     0  00:45        0.00
  PMP92865             JUNCTION     0.18     0.75  2556.96     0  00:21        0.00
  PMP92866             JUNCTION     0.56     2.17  2553.22     0  00:41        0.00
  PMP92867             JUNCTION     0.00     0.00  2568.90     0  00:00        0.00
  PMP92868             JUNCTION     0.30     1.77  2552.87     0  00:30        0.00
  PMP92869             JUNCTION     0.25     1.78  2553.07     0  00:31        0.00
  PMP92870             JUNCTION     0.19     0.47  2553.72     0  00:51        0.00
  PMP92871             JUNCTION     0.00     0.00  2554.70     0  00:00        0.00
  PMP92872             JUNCTION     0.14     0.43  2550.39     0  00:48        0.00
  PMP92873             JUNCTION     0.15     0.38  2553.51     0  00:49        0.00
  PMP92874             JUNCTION     0.04     0.12  2553.49     0  00:31        0.00
  PMP92875             JUNCTION     0.14     0.37  2553.47     0  00:48        0.00
  PMP92876             JUNCTION     0.21     0.53  2556.67     0  00:29        0.00
  PMP92879             JUNCTION     0.14     1.75  2552.52     0  00:37        0.00
  PMP92880             JUNCTION     0.18     0.39  2555.84     0  00:48        0.00
  PMP92881             JUNCTION     0.17     0.74  2554.46     0  00:46        0.00
  PMP92882             JUNCTION     0.10     0.24  2555.98     0  00:38        0.00
  PMP92883             JUNCTION     0.00     0.00  2551.84     0  00:00        0.00
  PMP92884             JUNCTION     0.42     1.71  2564.65     0  00:21        0.00
  PMP92885             JUNCTION     0.85     4.32  2553.24     0  00:33        0.00
  PMP92886             JUNCTION     0.14     0.36  2561.35     0  00:47        0.00
  PMP92886GA1          JUNCTION     0.10     0.26  2561.24     0  00:44        0.00
  PMP92887             JUNCTION     0.00     0.00  2552.34     0  00:00        0.00
  PMP92888             JUNCTION     0.13     0.35  2554.07     0  00:34        0.00
  PMP92889             JUNCTION     0.00     0.00  2562.77     0  00:00        0.00
  PMP92890             JUNCTION     0.09     0.21  2558.97     0  00:35        0.00
  PMP92891             JUNCTION     0.82     3.06  2551.56     0  00:42        0.00
  PMP92891GA25         JUNCTION     0.76     2.94  2551.43     0  00:42        0.00
  PMP92892             JUNCTION     0.07     0.21  2564.59     0  00:32        0.00
  PMP92893             JUNCTION     1.33     2.13  2555.43     0  00:26        0.00
  PMP92893GA18         JUNCTION     0.07     0.66  2553.95     0  02:51        0.00
  PMP92894             JUNCTION     0.25     1.66  2557.39     0  00:38        0.00
  PMP92895             JUNCTION     0.08     0.53  2552.19     0  00:44        0.00
  PMP92896             JUNCTION     0.17     0.47  2553.86     0  00:47        0.00
  PMP92897             JUNCTION     0.36     1.85  2551.58     0  00:41        0.00
  PMP92898             JUNCTION     0.22     0.53  2552.14     0  00:40        0.00
  PMP92899             JUNCTION     0.11     0.25  2566.13     0  01:00        0.00
  PMP92900             JUNCTION     0.07     3.29  2568.43     0  02:50        0.00
  PMP92901             JUNCTION     0.13     0.30  2568.44     0  00:48        0.00
  PMP92901GB20         JUNCTION     0.07     0.16  2568.30     0  00:48        0.00
  PMP92902             JUNCTION     0.00     0.00  2576.12     0  00:00        0.00
  PMP92903             JUNCTION     0.14     0.31  2571.69     0  00:24        0.00
  PMP92904             JUNCTION     0.30     0.83  2572.26     0  00:17        0.00
  PMP92905             JUNCTION     0.16     0.39  2555.14     0  00:51        0.00
  PMP92906             JUNCTION     1.00     1.20  2563.71     0  00:16        0.00
  PMP92906GB1          JUNCTION     0.01     0.64  2563.15     0  03:25        0.00
  PMP92907             JUNCTION     0.05     0.24  2575.59     0  00:45        0.00
  PMP92908             JUNCTION     0.47     1.46  2552.02     0  00:20        0.00
  PMP92909             JUNCTION     1.09     2.77  2552.73     0  01:25        0.00
  PMP92910             JUNCTION     0.76     2.22  2552.97     0  00:41        0.00
  PMP92911             JUNCTION     0.21     1.37  2553.72     0  00:20        0.00
  PMP92912             JUNCTION     0.08     0.22  2554.70     0  00:28        0.00
  PMP92913             JUNCTION     0.31     0.72  2552.70     0  00:48        0.00
  PMP92914             JUNCTION     0.10     0.61  2552.57     0  02:25        0.00
  PMP92916             JUNCTION     0.12     0.38  2555.95     0  00:49        0.00
  PMP92917             JUNCTION     0.58     1.34  2554.39     0  00:45        0.00
  PMP92918             JUNCTION     0.68     1.48  2557.21     0  00:14        0.00
  PMP92918GB3          JUNCTION     0.01     0.15  2555.88     0  01:21        0.00
  PMP92919             JUNCTION     0.00     0.00  2561.90     0  00:00        0.00
  PMP92920             JUNCTION     0.06     0.28  2556.97     0  01:21        0.00
  PMP92921             JUNCTION     0.10     0.30  2565.23     0  00:35        0.00
  PMP92922             JUNCTION     0.08     0.19  2560.44     0  00:38        0.00
  PMP92923             JUNCTION     0.25     1.65  2557.38     0  00:38        0.00
  PMP92924             JUNCTION     0.00     0.00  2562.56     0  00:00        0.00
  PMP92925             JUNCTION     0.76     3.07  2552.04     0  00:38        0.00
  PMP92926             JUNCTION     0.23     0.94  2552.18     0  00:44        0.00
  PMP92927             JUNCTION     0.03     0.47  2561.61     0  02:50        0.00
  PMP92928             JUNCTION     0.26     0.80  2553.32     0  00:47        0.00
  PMP92929             JUNCTION     0.00     0.00  2571.91     0  00:00        0.00
  PMP92930             JUNCTION     0.44     2.27  2568.83     0  00:27        0.00
  PMP92931             JUNCTION     0.35     1.18  2569.67     0  00:22        0.00
  PMP92932             JUNCTION     0.13     0.37  2554.07     0  00:42        0.00
  PMP92932GB24         JUNCTION     0.09     0.24  2553.93     0  00:43        0.00
  PMP92933             JUNCTION     0.39     1.72  2569.69     0  00:27        0.00
  PMP92934             JUNCTION     0.14     1.57  2571.63     0  00:38        0.00
  PMP92935             JUNCTION     0.08     1.21  2573.20     0  00:45        0.00
  PMP92936             JUNCTION     0.09     0.19  2571.01     0  00:25        0.00
  PMP92937             JUNCTION     0.24     1.60  2557.70     0  00:36        0.00
  PMP92938             JUNCTION     0.34     0.80  2551.89     0  00:38        0.00
  PMP92939             JUNCTION     0.16     1.60  2553.12     0  00:31        0.00
  PMP92940             JUNCTION     0.15     1.46  2553.27     0  00:32        0.00
  PMP92941             JUNCTION     0.21     1.33  2552.80     0  01:24        0.00
  PMP92942             JUNCTION     0.39     1.16  2550.83     0  01:25        0.00
  PMP92943             JUNCTION     0.12     0.30  2552.21     0  00:46        0.00
  PMP92944             JUNCTION     0.17     0.45  2553.45     0  00:48        0.00
  PMP92945             JUNCTION     0.56     1.19  2552.16     0  01:24        0.00
  PMP92946             JUNCTION     0.48     1.12  2552.19     0  01:24        0.00
  PMP92947             JUNCTION     0.15     0.31  2555.71     0  00:58        0.00
  PMP92948             JUNCTION     0.21     1.16  2552.67     0  02:25        0.00
  PMP92949             JUNCTION     1.16     1.60  2553.85     0  00:26        0.00
  PMP92949GB7          JUNCTION     0.04     0.71  2552.96     0  01:20        0.00
  PMP92950             JUNCTION     0.01     0.04  2554.42     0  00:53        0.00
  PMP92951             JUNCTION     0.71     3.19  2551.56     0  00:42        0.00
  PMP92952             JUNCTION     0.21     0.74  2554.70     0  00:51        0.00
  PMP92953             JUNCTION     0.35     2.30  2564.09     0  00:20        0.00
  PMP92954             JUNCTION     0.65     1.95  2550.12     0  00:41        0.00
  PMP92955             JUNCTION     0.41     1.02  2556.00     0  00:46        0.00
  PMP92955GA17         JUNCTION     0.36     0.90  2555.88     0  00:39        0.00
  PMP92956             JUNCTION     0.16     1.40  2558.14     0  00:39        0.00
  PMP92957             JUNCTION     0.00     0.00  2567.34     0  00:00        0.00
  PMP92958             JUNCTION     0.74     1.85  2564.33     0  00:20        0.00
  PMP92958GB5          JUNCTION     0.04     0.20  2562.68     0  00:20        0.00
  PMP92959             JUNCTION     0.04     0.16  2571.79     0  00:45        0.00
  PMP92960             JUNCTION     0.30     2.00  2553.02     0  00:33        0.00
  PMP92961             JUNCTION     0.26     1.96  2553.57     0  00:31        0.00
  PMP92962             JUNCTION     0.10     0.27  2554.88     0  00:36        0.00
  PMP92962GA23         JUNCTION     0.22     1.79  2556.40     0  00:13        0.00
  PMP92963             JUNCTION     0.36     1.45  2559.39     0  00:28        0.00
  PMP92964             JUNCTION     0.59     2.54  2570.93     0  00:27        0.00
  PMP92964GB13         JUNCTION     0.50     2.29  2570.67     0  00:27        0.00
  PMP92965             JUNCTION     0.08     1.35  2572.91     0  00:45        0.00
  PMP92966             JUNCTION     0.08     0.38  2553.57     0  00:47        0.00
  PMP92967             JUNCTION     0.09     0.28  2555.26     0  00:52        0.00
  PMP92968G            JUNCTION     0.46     1.29  2548.89     0  00:43        0.00
  PMP92969             JUNCTION     0.00     0.00  2566.62     0  00:00        0.00
  PMP92970             JUNCTION     0.00     0.00  2579.38     0  00:00        0.00
  PMP92971             JUNCTION     0.98     1.96  2552.39     0  02:56        0.00
  PMP92972             JUNCTION     0.36     1.67  2553.04     0  00:35        0.00
  PMP92973             JUNCTION     0.38     1.13  2550.82     0  01:25        0.00
  PMP92974             JUNCTION     0.33     2.07  2551.84     0  01:21        0.00
  PMP92975             JUNCTION     0.09     0.23  2555.47     0  00:26        0.00
  PMP92976             JUNCTION     0.09     0.24  2554.25     0  00:51        0.00
  PMP92977             JUNCTION     0.14     0.47  2550.71     0  00:48        0.00
  PMP92978             JUNCTION     0.41     1.66  2551.41     0  01:21        0.00
  PMP92979             JUNCTION     0.20     0.53  2549.67     0  01:26        0.00
  PMP92980             JUNCTION     0.12     0.27  2555.66     0  00:50        0.00
  PMP92981             JUNCTION     0.01     0.09  2554.46     0  00:48        0.00
  PMP92983             JUNCTION     0.00     0.00  2560.55     0  00:00        0.00
  PMP92984             JUNCTION     0.34     1.41  2554.80     0  00:29        0.00
  PMP92984G6           JUNCTION     0.33     1.40  2554.80     0  00:29        0.00
  PMP92985             JUNCTION     0.45     1.52  2552.34     0  00:28        0.00
  PMP92986             JUNCTION     0.83     1.97  2552.23     0  00:31        0.00
  PMP92988             JUNCTION     0.06     0.50  2553.12     0  02:52        0.00
  PMP92989             JUNCTION     0.07     0.36  2559.71     0  01:20        0.00
  PMP92990             JUNCTION     0.07     0.58  2553.60     0  02:52        0.00
  PMP92990GB18         JUNCTION     2.16     2.29  2555.31     0  00:13        0.00
  PMP92991             JUNCTION     0.08     0.47  2552.55     0  02:55        0.00
  PMP92991GA19         JUNCTION     0.08     0.40  2552.48     0  02:56        0.00
  PMP92992             JUNCTION     0.22     1.67  2557.45     0  00:38        0.00
  PMP92993             JUNCTION     0.03     0.51  2559.21     0  02:51        0.00
  PMP92994             JUNCTION     0.20     1.39  2560.53     0  00:29        0.00
  PMP92995             JUNCTION     0.04     0.18  2566.46     0  00:45        0.00
  PMP92996             JUNCTION     0.11     0.27  2557.04     0  00:29        0.00
  PMP92997             JUNCTION     0.53     1.79  2552.43     0  00:29        0.00
  PMP92998             JUNCTION     0.69     3.03  2553.54     0  00:35        0.00
  PMP92999             JUNCTION     0.13     0.42  2555.08     0  01:26        0.00
  PMP93000             JUNCTION     0.17     1.68  2564.75     0  00:20        0.00
  PMP93000GB14         JUNCTION     0.38     1.83  2564.91     0  00:14        0.00
  PMP93001             JUNCTION     0.37     1.66  2553.55     0  00:31        0.00
  PMP93002             JUNCTION     0.11     0.54  2559.14     0  01:25        0.00
  PMP93003             JUNCTION     0.21     0.64  2566.48     0  00:41        0.00
  PMP93003GA14         JUNCTION     0.10     0.25  2566.09     0  00:50        0.00
  PMP93004             JUNCTION     0.22     0.72  2573.97     0  00:28        0.00
  PMP93004GA13         JUNCTION     0.06     0.16  2573.41     0  00:36        0.00
  PMP93005             JUNCTION     0.22     1.42  2555.03     0  00:29        0.00
  PMP93006             JUNCTION     0.17     1.55  2553.17     0  00:32        0.00
  PMP93007             JUNCTION     0.50     1.48  2551.98     0  00:20        0.00
  PMP93008             JUNCTION     1.01     1.70  2552.05     0  01:12        0.00
  PMP93008GA9          JUNCTION     0.92     1.70  2552.05     0  01:12        0.00
  PMP93009             JUNCTION     0.19     0.48  2553.87     0  00:53        0.00
  PMP93010             JUNCTION     1.07     1.57  2551.74     0  00:47        0.00
  PMP93011             JUNCTION     0.34     1.22  2552.46     0  02:26        0.00
  PMP93011GA8          JUNCTION     0.33     1.24  2552.48     0  02:26        0.00
  PMP93012             JUNCTION     0.30     1.32  2550.90     0  01:25        0.00
  PMP93012GA12         JUNCTION     0.16     0.52  2550.10     0  01:25        0.00
  PMP93013             JUNCTION     0.16     0.47  2552.76     0  00:48        0.00
  PMP93014             JUNCTION     0.42     1.48  2552.68     0  02:24        0.00
  PMP93014GB8          JUNCTION     0.39     1.03  2552.24     0  01:25        0.00
  PMP93015             JUNCTION     0.91     2.87  2553.57     0  02:23        0.00
  PMP93016             JUNCTION     1.10     1.60  2553.97     0  00:36        0.00
  PMP93018             JUNCTION     0.11     0.28  2561.95     0  00:45        0.00
  PMP93019             JUNCTION     0.97     1.65  2554.21     0  00:46        0.00
  PMP93022             JUNCTION     0.03     0.27  2551.70     0  00:56        0.00
  PMP93023             JUNCTION     0.14     0.42  2555.17     0  00:50        0.00
  PMP93024             JUNCTION     0.70     3.07  2551.51     0  00:42        0.00
  PMP93025             JUNCTION     0.72     3.05  2551.49     0  00:42        0.00
  PMP93026             JUNCTION     0.15     0.54  2555.12     0  02:56        0.00
  PMP93027             JUNCTION     0.13     0.50  2556.26     0  00:44        0.00
  PMP93027GC3          JUNCTION     0.08     0.27  2556.03     0  00:44        0.00
  PMP93028             JUNCTION     0.04     0.47  2555.31     0  02:56        0.00
  PMP93029             JUNCTION     0.89     3.11  2551.63     0  00:38        0.00
  PMP93030             JUNCTION     0.05     0.27  2561.56     0  00:45        0.00
  PMP93031             JUNCTION     0.95     1.97  2555.82     0  00:28        0.00
  PMP93031GB17         JUNCTION     1.48     1.97  2555.82     0  00:15        0.00
  PMP93033             JUNCTION     0.58     2.83  2553.48     0  00:36        0.00
  PMP93034             JUNCTION     0.37     1.72  2551.13     0  00:41        0.00
  PMP93035             JUNCTION     0.04     0.19  2569.27     0  00:45        0.00
  PMP93036             JUNCTION     0.92     2.49  2562.06     0  00:20        0.00
  PMP93036GB15         JUNCTION     0.14     0.33  2558.90     0  00:29        0.00
  PMP93037             JUNCTION     0.14     0.39  2552.13     0  00:41        0.00
  PMP93038             JUNCTION     1.75     1.88  2558.16     0  00:16        0.00
  PMP93038GB23         JUNCTION     0.00     0.04  2556.32     0  00:10        0.00
  PMP93039             JUNCTION     0.26     2.99  2566.59     0  02:51        0.00
  PMP93039GA21         JUNCTION     0.13     0.49  2564.09     0  02:55        0.00
  PMP93040             JUNCTION     1.14     2.02  2565.99     0  00:14        0.00
  PMP93040GB21         JUNCTION     0.01     0.25  2564.22     0  02:20        0.00
  PMP93041             JUNCTION     0.11     0.26  2568.63     0  00:58        0.00
  PMP93042             JUNCTION     0.00     0.00  2580.23     0  00:00        0.00
  PMP93043             JUNCTION     0.00     0.00  2583.34     0  00:00        0.00
  PMP93044             JUNCTION     0.23     0.93  2552.11     0  00:53        0.00
  PMP93045             JUNCTION     0.09     0.24  2559.97     0  03:26        0.00
  PMP93046             JUNCTION     0.14     0.35  2552.58     0  00:41        0.00
  PMP93046GA24         JUNCTION     0.17     0.43  2552.66     0  00:42        0.00
  PMP93047             JUNCTION     0.41     1.72  2552.56     0  00:30        0.00
  PMP93048             JUNCTION     0.04     1.20  2553.57     0  00:43        0.00
  PMP93049             JUNCTION     0.35     1.04  2550.78     0  01:22        0.00
  PMP93050             JUNCTION     0.15     0.39  2553.46     0  00:48        0.00
  PMP93051             JUNCTION     1.22     1.80  2551.88     0  01:20        0.00
  PMP930512            JUNCTION     1.14     1.76  2551.85     0  02:29        0.00
  PMP930512GB10        JUNCTION     0.15     0.76  2550.84     0  01:21        0.00
  PMP93051GB9          JUNCTION     1.15     1.79  2551.88     0  02:27        0.00
  PMP93052             JUNCTION     0.00     0.00  2554.04     0  00:00        0.00
  PMP93053             JUNCTION     0.24     0.66  2553.37     0  00:47        0.00
  PMP93054             JUNCTION     0.14     0.38  2554.48     0  00:52        0.00
  PMP93055             JUNCTION     0.08     0.52  2554.45     0  00:47        0.00
  PMP93056             JUNCTION     0.11     0.26  2555.59     0  00:50        0.00
  PMP93057             JUNCTION     0.39     1.44  2552.71     0  02:25        0.00
  PMP93058             JUNCTION     0.18     0.49  2549.73     0  00:54        0.00
  PMP93058GB12         JUNCTION     0.16     0.43  2549.67     0  00:55        0.00
  PMP93059             JUNCTION     0.16     0.49  2549.87     0  00:54        0.00
  PMP93060             JUNCTION     0.47     1.37  2554.59     0  00:25        0.00
  PMP93061             JUNCTION     0.31     1.92  2552.24     0  00:35        0.00
  PMP93062             JUNCTION     0.20     0.53  2554.81     0  00:52        0.00
  PMP93062GA2          JUNCTION     0.16     0.45  2554.73     0  00:51        0.00
  PMP93063             JUNCTION     0.00     0.00  2562.52     0  00:00        0.00
  PMP93064             JUNCTION     0.53     1.22  2557.17     0  00:14        0.00
  PMP93065             JUNCTION     0.10     0.49  2555.05     0  02:56        0.00
  PMP93066             JUNCTION     0.07     0.36  2560.33     0  00:46        0.00
  PMP93066GB4          JUNCTION     0.05     0.20  2560.17     0  00:46        0.00
  PMP93067             JUNCTION     0.60     3.30  2551.64     0  00:42        0.00
  PMP93068             JUNCTION     0.23     1.92  2558.80     0  00:36        0.00
  PMP93069             JUNCTION     0.91     2.53  2552.54     0  00:33        0.00
  PMP93070             JUNCTION     0.06     0.17  2565.04     0  00:53        0.00
  PMP93071             JUNCTION     0.06     0.18  2563.74     0  00:39        0.00
  PMP93072             JUNCTION     0.04     0.48  2557.95     0  02:54        0.00
  PMP93073             JUNCTION     0.23     0.64  2553.01     0  00:49        0.00
  PMP93073GB19         JUNCTION     0.18     0.47  2552.84     0  00:49        0.00
  PMP93074             JUNCTION     0.16     0.42  2551.89     0  00:39        0.00
  PMP93075             JUNCTION     0.11     0.35  2555.64     0  01:26        0.00
  PMP93076             JUNCTION     0.00     0.00  2580.22     0  00:00        0.00
  PMP93077             JUNCTION     0.03     0.28  2568.15     0  00:40        0.00
  PMP93077GA20         JUNCTION     0.26     1.89  2569.76     0  00:35        0.00
  PMP93078             JUNCTION     0.12     0.35  2554.59     0  00:32        0.00
  PMP93079             JUNCTION     1.20     1.93  2551.76     0  00:23        0.00
  PMP93079GA10         JUNCTION     0.30     1.93  2551.76     0  01:26        0.00
  PMP93080             JUNCTION     0.11     0.29  2554.03     0  00:33        0.00
  PMP93081             JUNCTION     0.21     0.82  2554.69     0  00:27        0.00
  PMP93082             JUNCTION     0.17     0.44  2553.82     0  00:53        0.00
  PMP93083             JUNCTION     0.12     0.36  2553.82     0  00:52        0.00
  PMP93084             JUNCTION     0.13     0.38  2550.00     0  00:49        0.00
  PMP93085             JUNCTION     0.20     1.26  2551.88     0  00:34        0.00
  PMP93086             JUNCTION     0.24     1.56  2557.45     0  00:19        0.00
  PMP93088             JUNCTION     0.72     1.44  2554.30     0  00:46        0.00
  PMP93090             JUNCTION     0.98     5.48  2554.09     0  00:32        0.00
  PMP93091             JUNCTION     0.05     0.24  2558.63     0  01:21        0.00
  PMP93092             JUNCTION     0.31     2.70  2551.59     0  00:42        0.00
  PMP93092GB25         JUNCTION     1.62     2.70  2551.59     0  00:28        0.00
  PMP93093             JUNCTION     1.06     2.55  2562.55     0  00:17        0.00
  PMP93093GA4          JUNCTION     0.01     0.35  2560.34     0  01:20        0.00
  PMP93094             JUNCTION     0.08     2.06  2557.90     0  02:52        0.00
  PMP93094GD3          JUNCTION     0.04     0.53  2556.37     0  02:55        0.00
  PMP93095             JUNCTION     0.90     3.08  2551.71     0  00:38        0.00
  PMP93096             JUNCTION     0.60     2.11  2550.10     0  00:41        0.00
  PMP93097             JUNCTION     0.42     1.90  2550.86     0  00:41        0.00
  PMP93097GC25         JUNCTION     0.37     1.80  2550.76     0  00:41        0.00
  PMP93098             JUNCTION     0.00     0.00  2565.99     0  00:00        0.00
  PMP930991            JUNCTION     0.30     2.43  2557.98     0  01:24        0.00
  PMP930992            JUNCTION     0.25     0.94  2556.49     0  00:42        0.00
  PMP93099G16          JUNCTION     0.22     0.66  2556.21     0  00:46        0.00
  PMP93100             JUNCTION     1.70     2.44  2565.71     0  00:24        0.00
  PMP93100GA5          JUNCTION     0.01     1.39  2564.66     0  02:50        0.00
  PMP93101             JUNCTION     0.33     0.85  2553.28     0  00:48        0.00
  PMP93102             JUNCTION     0.13     0.36  2551.96     0  00:40        0.00
  PMP93103             JUNCTION     0.09     0.23  2553.88     0  00:42        0.00
  PMP93104             JUNCTION     0.33     2.02  2552.44     0  00:34        0.00
  PMP93105             JUNCTION     0.29     1.27  2565.48     0  00:21        0.00
  PMP93107             JUNCTION     0.00     0.00  2574.53     0  00:00        0.00
  PMP93108             JUNCTION     0.08     0.22  2552.60     0  00:44        0.00
  PMP93109             JUNCTION     0.05     0.28  2551.93     0  00:55        0.00
  PMP93110             JUNCTION     0.09     0.28  2555.22     0  00:47        0.00
  PMP93111             JUNCTION     0.08     1.35  2553.26     0  00:42        0.00
  PMP93112             JUNCTION     0.19     1.44  2553.03     0  00:41        0.00
  PMP93113             JUNCTION     0.10     1.30  2553.09     0  00:42        0.00
  PMP93114             JUNCTION     0.29     1.58  2553.05     0  00:41        0.00
  PMP93115             JUNCTION     0.23     1.56  2553.62     0  00:25        0.00
  PMP93116             JUNCTION     0.37     2.07  2553.42     0  00:41        0.00
  PMP93117             JUNCTION     0.42     1.87  2553.12     0  00:41        0.00
  PMP93118             JUNCTION     0.27     1.63  2552.83     0  00:30        0.00
  PMP93119             JUNCTION     0.49     2.75  2553.92     0  00:51        0.00
  PMP93121             JUNCTION     0.21     0.90  2552.72     0  00:25        0.00
  PMP93122             JUNCTION     0.62     4.85  2554.95     0  00:35        0.00
  PMP93123             JUNCTION     0.54     7.12  2557.10     0  00:35        0.00
  PMP93124             JUNCTION     0.47     4.15  2554.30     0  00:14        0.00
  PMP93125             JUNCTION     0.06     0.20  2551.00     0  00:34        0.00
  PMP93126             JUNCTION     0.12     0.32  2552.27     0  00:46        0.00
  PMP93127             JUNCTION     0.16     1.46  2553.03     0  01:24        0.00
  PMP93128             JUNCTION     0.32     1.38  2552.67     0  02:26        0.00
  PMP93129             JUNCTION     0.20     1.60  2553.09     0  02:26        0.00
  PMP93130             JUNCTION     0.30     1.76  2552.76     0  00:30        0.00
  PMP93131             JUNCTION     0.70     2.20  2553.03     0  00:41        0.00
  PMP93132             JUNCTION     0.89     1.90  2552.44     0  00:41        0.00
  PMP93133             JUNCTION     0.32     1.57  2552.50     0  00:28        0.00
  PMP93134             JUNCTION     0.32     1.41  2552.37     0  00:29        0.00
  PMP93135             JUNCTION     0.51     1.60  2552.29     0  00:29        0.00
  PMP93136             JUNCTION     0.42     1.54  2551.78     0  00:35        0.00
  PMP93137             JUNCTION     0.22     1.95  2552.96     0  00:35        0.00
  PMP93139             JUNCTION     0.48     1.15  2548.08     0  00:57        0.00
  PMP93146             JUNCTION     0.84     3.07  2552.12     0  00:35        0.00
  PMP93147             JUNCTION     0.00     0.00  2550.52     0  00:00        0.00
  PMP93148             JUNCTION     0.05     0.16  2560.44     0  00:35        0.00
  PMP93151             JUNCTION     1.04     3.43  2551.71     0  00:32        0.00
  PMP93152             JUNCTION     0.54     1.64  2552.23     0  00:20        0.00
  PMP93153             JUNCTION     0.40     1.39  2552.87     0  00:17        0.00
  PMP93154             JUNCTION     0.48     1.37  2552.65     0  00:16        0.00
  PMP93155             JUNCTION     0.57     1.44  2552.59     0  00:16        0.00
  PMP93155GA11         JUNCTION     0.34     1.40  2552.55     0  00:29        0.00
  PMP93156             JUNCTION     0.52     1.55  2552.22     0  00:30        0.00
  PMP93157             JUNCTION     0.00     0.00  2550.86     0  00:00        0.00
  PMP93158             JUNCTION     0.10     1.68  2552.79     0  00:35        0.00
  PMP93159             JUNCTION     0.61     3.02  2552.53     0  00:35        0.00
  PMP93160             JUNCTION     0.08     0.32  2552.06     0  00:54        0.00
  PMP93161             JUNCTION     0.67     7.11  2556.67     0  00:35        0.00
  PMP93170             JUNCTION     1.01     3.54  2551.87     0  00:32        0.00
  PMP93171             JUNCTION     1.02     4.87  2553.29     0  00:31        0.00
  PMP93172             JUNCTION     0.01     0.04  2550.13     0  00:48        0.00
  PMP93173             JUNCTION     0.99     5.11  2553.65     0  00:31        0.00
  PMP93174             JUNCTION     0.87     3.26  2552.21     0  00:33        0.00
  PMP93175             JUNCTION     0.01     0.05  2554.47     0  00:33        0.00
  PMP93176             JUNCTION     0.07     0.26  2554.58     0  00:29        0.00
  PMP93177             JUNCTION     0.10     0.35  2554.57     0  00:32        0.00
  PMP93178             JUNCTION     0.20     0.61  2554.58     0  00:27        0.00
  PMP93179             JUNCTION     0.05     0.24  2562.04     0  00:45        0.00
  PMP93180             JUNCTION     0.18     0.44  2553.67     0  00:50        0.00
  PMP93181             JUNCTION     0.17     0.44  2553.70     0  00:51        0.00
  PMP93182             JUNCTION     0.09     0.44  2588.09     0  00:45        0.00
  PMP93183             JUNCTION     0.00     0.64  2552.91     0  02:25        0.00
  PMP93184             JUNCTION     0.01     0.58  2552.83     0  02:25        0.00
  PMP93185             JUNCTION     0.03     1.71  2553.67     0  01:23        0.00
  PMP93186             JUNCTION     0.30     1.18  2553.55     0  00:24        0.00
  PMP93187             JUNCTION     0.50     1.62  2553.02     0  00:21        0.00
  PMP93188             JUNCTION     0.58     2.53  2553.52     0  00:21        0.00
  PMP93189             JUNCTION     0.48     2.29  2553.26     0  00:35        0.00
  PMP93190             JUNCTION     0.78     3.19  2553.49     0  00:35        0.00
  PMP93192             JUNCTION     0.15     0.45  2553.05     0  00:47        0.00
  PMP93193             JUNCTION     0.51     1.10  2554.17     0  00:23        0.00
  PMP93194             JUNCTION     0.72     6.58  2556.17     0  00:35        0.00
  PMP93195             JUNCTION     0.54     1.18  2554.25     0  00:23        0.00
  PMP93196             JUNCTION     0.63     1.39  2554.33     0  00:24        0.00
  PMP93197             JUNCTION     0.00     0.00  2580.31     0  00:00        0.00
  PMP93198             JUNCTION     0.21     2.61  2567.20     0  02:50        0.00
  PMP93199             JUNCTION     0.00     0.00  2585.48     0  00:00        0.00
  PMP93205             JUNCTION     0.22     2.37  2559.52     0  01:23        0.00
  PMP93205GA22         JUNCTION     0.14     0.48  2557.63     0  01:25        0.00
  PMP93209             JUNCTION     0.80     1.92  2552.59     0  00:41        0.00
  PMP93210             JUNCTION     0.00     0.00  2557.84     0  00:00        0.00
  PMP93212             JUNCTION     0.49     1.41  2551.86     0  00:20        0.00
  PMP93213             JUNCTION     0.52     1.42  2551.82     0  00:20        0.00
  PMP93213GC10         JUNCTION     0.50     1.42  2551.82     0  00:35        0.00
  PMP93219             JUNCTION     0.06     1.44  2551.12     0  00:42        0.00
  PMP93220             JUNCTION     0.03     0.20  2550.15     0  00:46        0.00
  PMP93221             JUNCTION     0.00     0.00  2550.15     0  00:00        0.00
  PMP93224             JUNCTION     0.32     1.25  2552.93     0  00:18        0.00
  PMP93225             JUNCTION     0.88     2.06  2552.26     0  01:21        0.00
  PMP93226             JUNCTION     0.79     2.30  2552.61     0  01:21        0.00
  PMP93227             JUNCTION     0.63     1.87  2552.38     0  00:30        0.00
  PMP93227GB11         JUNCTION     0.64     1.87  2552.38     0  00:30        0.00
  PMP93228             JUNCTION     0.51     1.25  2547.79     0  00:58        0.00
  PMP92914GA7          JUNCTION     0.16     0.57  2552.53     0  02:25        0.00
  DESC                 OUTFALL      0.51     1.25  2546.18     0  00:58        0.00
  
  
  *******************
  Node Inflow Summary
  *******************
  
  -------------------------------------------------------------------------------------------------
                                  Maximum  Maximum                  Lateral       Total        Flow
                                  Lateral    Total  Time of Max      Inflow      Inflow     Balance
                                   Inflow   Inflow   Occurrence      Volume      Volume       Error
  Node                 Type           LPS      LPS  days hr:min    10^6 ltr    10^6 ltr     Percent
  -------------------------------------------------------------------------------------------------
  CRE01                JUNCTION      0.00  1439.99     0  00:57           0        5.25       1.203
  CRE02                JUNCTION      0.00  1440.18     0  00:56           0         5.3       0.926
  CRE03                JUNCTION      0.00  1521.51     0  01:26           0        5.33       0.457
  CRE04                JUNCTION      0.00  1795.84     0  01:26           0        5.34       0.219
  CRE05                JUNCTION      0.00  1987.57     0  01:25           0        5.35       0.193
  CRE06                JUNCTION      0.00   823.42     0  00:45           0        1.12       0.003
  CRE07                JUNCTION      0.00  2977.16     0  00:41           0        8.46       0.241
  CRE08                JUNCTION      0.00   430.70     0  01:21           0       0.388       0.031
  CRE09                JUNCTION      0.00   887.14     0  00:45           0        1.11      -0.173
  PMC98455             JUNCTION      0.00   861.75     0  02:56           0        1.19       0.018
  PMC98457             JUNCTION      0.00   549.07     0  00:58           0        1.19      -0.108
  PMC98478             JUNCTION      0.00  1643.58     0  01:22           0        3.57       0.042
  PMCI106387           JUNCTION      0.00   114.50     0  02:20           0      0.0135      -3.863
  PMCI106387GB22       JUNCTION      0.00   163.12     0  02:20           0      0.0138      -8.462
  PMI105964            JUNCTION      0.00     5.34     0  00:43           0    0.000533       0.139
  PMI105971            JUNCTION      0.00    10.66     0  00:42           0     0.00209      -1.261
  PMI106007            JUNCTION      0.00    21.64     0  00:30           0     0.00108      -0.666
  PMI60590             JUNCTION      0.00    79.74     0  00:34           0      0.0169       3.192
  PMI92722             JUNCTION      0.00     0.00     0  00:00           0           0       0.000 ltr
  PMI92729             JUNCTION    556.05   556.05     0  00:45       0.718       0.718      -0.025
  PMI92730             JUNCTION    556.05   556.05     0  00:45       0.718       0.718       0.005
  PMI92731             JUNCTION    612.85   612.85     0  00:45       0.798       0.798      -0.001
  PMI92732             JUNCTION    883.37   883.37     0  00:45        1.19        1.19      -0.015
  PMI92733             JUNCTION    777.73   777.73     0  00:45        1.04        1.04      -0.012
  PMI92734             JUNCTION    193.92   193.92     0  00:45        0.24        0.24      -0.063
  PMI92735             JUNCTION    883.37   883.37     0  00:45        1.19        1.19      -0.069
  PMI92736             JUNCTION   1035.88  1035.88     0  00:45        1.43        1.43      -0.001
  PMI92737             JUNCTION    379.72   379.72     0  00:45        0.48        0.48      -0.000
  PMI92738             JUNCTION      0.00   119.21     0  01:29           0      0.0528       0.035
  PMI92739             JUNCTION      0.00     0.00     0  00:00           0           0       0.000 ltr
  PMI92740             JUNCTION    723.66   723.66     0  00:45       0.956       0.956       0.010
  PMI92741             JUNCTION      0.00     0.86     0  00:23           0    0.000277       0.014
  PMI92743             JUNCTION    318.86   318.86     0  00:45         0.4         0.4      -0.020
  PMI92744             JUNCTION      0.00     0.00     0  00:00           0           0       0.000 ltr
  PMI92745             JUNCTION    498.28   498.28     0  00:45       0.639       0.639      -0.018
  PMI92747             JUNCTION    612.85   612.85     0  00:45       0.798       0.798      -0.002
  PMI92748             JUNCTION   1035.88  1035.88     0  00:45        1.43        1.43      -0.001
  PMI92749             JUNCTION      0.00     0.00     0  00:00           0           0       0.000 ltr
  PMI92750             JUNCTION      0.00     0.00     0  00:00           0           0       0.000 ltr
  PMI92751             JUNCTION    830.96   830.96     0  00:45        1.11        1.11      -0.000
  PMI92752             JUNCTION      0.00     0.00     0  00:00           0           0       0.000 ltr
  PMI92753             JUNCTION      0.00    10.10     0  00:43           0      0.0012       0.776
  PMI92754             JUNCTION    830.96   830.96     0  00:45        1.11        1.11      -0.046
  PMI92755             JUNCTION    379.72   379.72     0  00:45        0.48       0.481      -0.016
  PMI92756             JUNCTION      0.00     0.00     0  00:00           0           0       0.000 ltr
  PMI92757             JUNCTION      0.00     0.00     0  00:00           0           0       0.000 ltr
  PMI92758             JUNCTION      0.00    83.50     0  02:28           0      0.0092      -1.636
  PMI92759             JUNCTION    985.80   985.80     0  00:45        1.35        1.35       0.019
  PMI92760             JUNCTION    883.37   883.37     0  00:45        1.19        1.19      -0.009
  PMI92761             JUNCTION    777.73   777.73     0  00:45        1.04        1.04       0.013
  PMI92762             JUNCTION    777.73   777.73     0  00:45        1.04        1.04      -0.000
  PMI92763             JUNCTION    883.37   883.37     0  00:45        1.19        1.19      -0.027
  PMI92764             JUNCTION    668.71   668.71     0  00:45       0.877       0.877      -0.014
  PMI92765             JUNCTION    777.73   777.73     0  00:45        1.04        1.04      -0.009
  PMI92766             JUNCTION   1035.88  1035.88     0  00:45        1.43        1.43      -0.001
  PMI92767             JUNCTION    498.28   498.28     0  00:45       0.639       0.639      -0.011
  PMI92768             JUNCTION    883.37   883.37     0  00:45        1.19        1.19      -0.004
  PMI92770             JUNCTION   1133.86  1133.86     0  00:45        1.59        1.59      -0.002
  PMI92771             JUNCTION      0.00     0.00     0  00:00           0           0       0.000 ltr
  PMI92772             JUNCTION    883.37   883.37     0  00:45        1.19        1.19      -0.032
  PMI92773             JUNCTION      0.00     0.00     0  00:00           0           0       0.000 ltr
  PMI92774             JUNCTION    379.72   379.72     0  00:45        0.48        0.48      -0.000
  PMI92775             JUNCTION    193.92   193.92     0  00:45        0.24        0.24      -0.020
  PMI92776             JUNCTION    318.86   318.86     0  00:45         0.4         0.4      -0.084
  PMI92777             JUNCTION      0.00     0.00     0  00:00           0           0       0.000 ltr
  PMI92778             JUNCTION    318.86   318.86     0  00:45         0.4        0.41      -0.015
  PMI92779             JUNCTION      0.00     0.00     0  00:00           0           0       0.000 ltr
  PMI92780             JUNCTION      0.00     0.00     0  00:00           0           0       0.000 ltr
  PMI92781             JUNCTION    439.52   439.52     0  00:45       0.559       0.559      -0.003
  PMI92782             JUNCTION    723.66   723.66     0  00:45       0.956       0.956       0.529
  PMI92783             JUNCTION   1035.88  1035.88     0  00:45        1.43        1.43      -0.000
  PMI92784             JUNCTION      0.00     0.00     0  00:00           0           0       0.000 ltr
  PMI92785             JUNCTION    612.85   612.85     0  00:45       0.798       0.798       0.007
  PMI92786             JUNCTION    883.37   883.38     0  00:45        1.19        1.19      -0.031
  PMI92787             JUNCTION      0.00     0.00     0  00:00           0           0       0.000 ltr
  PMI92788             JUNCTION   1085.22  1085.22     0  00:45        1.51        1.51       0.001
  PMI92789             JUNCTION    498.28   498.28     0  00:45       0.639       0.639       0.007
  PMI92790             JUNCTION      0.00     0.00     0  00:00           0           0       0.000 ltr
  PMI92791             JUNCTION   1133.86  1133.86     0  00:45        1.59        1.59      -0.001
  PMI92792             JUNCTION    723.66   723.66     0  00:45       0.956       0.956       0.011
  PMI92793             JUNCTION    556.05   556.05     0  00:45       0.718       0.718      -0.002
  PMI92794             JUNCTION    318.86   318.86     0  00:45         0.4       0.415      -0.085
  PMI92795             JUNCTION      0.00     0.00     0  00:00           0           0       0.000 ltr
  PMI92796             JUNCTION    498.28   498.28     0  00:45       0.639       0.639       0.012
  PMI92797             JUNCTION      0.00     0.00     0  00:00           0           0       0.000 ltr
  PMI92799             JUNCTION   1982.85  1982.85     0  00:45        3.15        3.15       0.002
  PMI92800             JUNCTION      0.00   123.04     0  02:23           0     0.00743       1.741
  PMI92801             JUNCTION      0.00    27.67     0  00:31           0     0.00039       1.800
  PMI92802             JUNCTION      0.00    11.45     0  01:24           0    0.000231      11.443
  PMI92803             JUNCTION      0.00    32.73     0  00:28           0     0.00113       2.187
  PMI92804             JUNCTION    883.37   883.37     0  00:45        1.19        1.19      -0.005
  PMI92806             JUNCTION      0.00    15.96     0  00:27           0     0.00205       0.019
  PMI92807             JUNCTION      0.00     0.35     0  00:29           0    6.17e-05       0.606
  PMI92808             JUNCTION      0.00     0.00     0  00:00           0           0       0.000 ltr
  PMI92809             JUNCTION    556.05   556.05     0  00:45       0.718       0.718      -0.003
  PMI92810             JUNCTION      0.00     0.00     0  00:00           0           0       0.000 ltr
  PMI92811             JUNCTION      0.00    19.58     0  00:24           0     0.00697       0.090
  PMI92812             JUNCTION    723.66   723.66     0  00:45       0.956       0.956      -0.000
  PMI92813             JUNCTION      0.00     0.00     0  00:00           0           0       0.000 ltr
  PMI92819             JUNCTION      0.00    58.42     0  00:34           0       0.002       0.363
  PMP105957            JUNCTION      0.00     8.03     0  00:43           0    0.000775       0.854
  PMP105960            JUNCTION      0.00    14.62     0  00:43           0     0.00268      -0.223
  PMP105962            JUNCTION      0.00     5.68     0  00:30           0     0.00285       0.366
  PMP105970            JUNCTION      0.00  3204.59     0  00:42           0        12.8       0.061
  PMP106006            JUNCTION      0.00  3183.71     0  00:42           0        12.7       0.069
  PMP106082            JUNCTION      0.00   850.87     0  00:39           0        3.18       0.031
  PMP106083            JUNCTION      0.00   339.36     0  00:52           0       0.578      -0.000
  PMP106084            JUNCTION      0.00    21.62     0  00:30           0     0.00391       0.011
  PMP106155            JUNCTION    883.37   883.37     0  00:45        1.19        1.19      -0.009
  PMP106384            JUNCTION      0.00   754.37     0  01:25           0         1.4       0.017
  PMP106385            JUNCTION      0.00    78.15     0  00:17           0       0.326      -0.025
  PMP106386            JUNCTION      0.00    82.18     0  02:20           0      0.0138      -1.010
  PMP108534            JUNCTION      0.00   118.50     0  00:38           0       0.201      -0.030
  PMP108535            JUNCTION      0.00   118.58     0  00:38           0       0.201      -0.003
  PMP108536            JUNCTION    193.92   193.92     0  00:45        0.24        0.24      -0.000
  PMP60972             JUNCTION      0.00   478.53     0  00:35           0         1.3      -0.004
  PMP62782             JUNCTION   1181.80  1181.80     0  00:45        1.67        1.68      -0.002
  PMP63233             JUNCTION      0.00   478.52     0  00:35           0        1.27       0.030
  PMP63245             JUNCTION      0.00   113.92     0  00:34           0      0.0518      -0.437
  PMP63246             JUNCTION      0.00   140.67     0  00:34           0      0.0842      -0.112
  PMP63313             JUNCTION      0.00    12.38     0  00:36           0     0.00408      84.258
  PMP63314             JUNCTION      0.00    16.65     0  00:35           0      0.0104      42.998
  PMP63315             JUNCTION      0.00    17.08     0  00:33           0      0.0126      23.814
  PMP63316             JUNCTION      0.00    27.49     0  00:42           0      0.0357       0.000
  PMP92820             JUNCTION      0.00  3140.49     0  00:44           0        12.7       0.033
  PMP92821             JUNCTION      0.00  3147.47     0  00:43           0        12.7       0.039
  PMP92827             JUNCTION      0.00   204.79     0  00:34           0       0.704      -0.116
  PMP92828             JUNCTION      0.00  2140.01     0  02:50           0        1.12      -2.499
  PMP92828GB20         JUNCTION      0.00  2142.43     0  02:50           0       0.094     -43.685
  PMP92829             JUNCTION      0.00   905.07     0  01:21           0        1.32       0.106
  PMP92830             JUNCTION    556.05   556.05     0  00:45       0.718       0.817      -0.009
  PMP92834             JUNCTION      0.00   224.74     0  01:28           0       0.183       5.218
  PMP92838             JUNCTION      0.00  1900.43     0  01:27           0        3.66       2.044
  PMP92840             JUNCTION      0.00   152.62     0  00:47           0       0.489       0.445
  PMP92841             JUNCTION      0.00   143.97     0  00:28           0       0.404      -0.051
  PMP92842             JUNCTION      0.00   464.03     0  00:47           0        1.34       0.011
  PMP92843             JUNCTION      0.00   231.65     0  00:49           0       0.388      -1.251
  PMP92843GA3          JUNCTION      0.00   469.06     0  01:25           0       0.393       1.026
  PMP92844             JUNCTION      0.00   228.97     0  00:46           0       0.571      -0.026
  PMP92845             JUNCTION      0.00   152.70     0  00:36           0       0.489       0.040
  PMP92846             JUNCTION      0.00   301.51     0  00:47           0       0.466      -0.001
  PMP92847             JUNCTION      0.00   152.70     0  00:35           0       0.489       0.024
  PMP92848             JUNCTION      0.00   429.85     0  01:22           0       0.388      -0.328
  PMP92849             JUNCTION      0.00     0.00     0  00:00           0           0       0.000 ltr
  PMP92850             JUNCTION    723.66  2279.53     0  00:45       0.956        5.68       0.053
  PMP92852             JUNCTION      0.00     0.00     0  00:00           0           0       0.000 ltr
  PMP92853             JUNCTION      0.00   754.45     0  02:57           0        1.19       0.063
  PMP92853GB2          JUNCTION      0.00   495.42     0  02:57           0        1.19       0.776
  PMP92854             JUNCTION      0.00  1806.46     0  00:52           0        4.72       0.052
  PMP92855             JUNCTION      0.00   915.35     0  02:52           0        0.56       0.799
  PMP92856             JUNCTION      0.00  1799.58     0  00:52           0        4.72       0.113
  PMP92857             JUNCTION      0.00   137.72     0  00:29           0       0.363      -0.025
  PMP92859             JUNCTION      0.00   257.65     0  00:45           0        0.32      -0.033
  PMP92860             JUNCTION      0.00   699.57     0  02:21           0        1.39      -0.051
  PMP92861             JUNCTION      0.00   256.91     0  00:45           0        0.32       0.004
  PMP92862             JUNCTION    256.93   256.93     0  00:45        0.32        0.32      -0.003
  PMP92863             JUNCTION      0.00   679.66     0  00:50           0        1.85      -0.973
  PMP92863GA15         JUNCTION      0.00   903.27     0  00:20           0        1.87      -0.319
  PMP92864             JUNCTION      0.00   663.68     0  02:56           0        1.34       0.029
  PMP92865             JUNCTION      0.00   224.72     0  00:30           0       0.617      -0.019
  PMP92866             JUNCTION      0.00   420.23     0  00:43           0       0.849       0.737
  PMP92867             JUNCTION      0.00     0.00     0  00:00           0           0       0.000 ltr
  PMP92868             JUNCTION      0.00   479.36     0  00:30           0       0.544      -0.132
  PMP92869             JUNCTION      0.00   358.78     0  00:30           0       0.533      -0.043
  PMP92870             JUNCTION      0.00   262.68     0  00:55           0        0.78       0.082
  PMP92871             JUNCTION      0.00     0.00     0  00:00           0           0       0.000 ltr
  PMP92872             JUNCTION      0.00   350.06     0  00:48           0       0.779      -0.005
  PMP92873             JUNCTION      0.00   262.79     0  00:53           0        0.78       0.024
  PMP92874             JUNCTION      0.00   141.61     0  00:31           0       0.391       0.002
  PMP92875             JUNCTION      0.00   265.99     0  01:00           0       0.782      -0.004
  PMP92876             JUNCTION      0.00   756.20     0  00:29           0        2.19      -0.018
  PMP92879             JUNCTION      0.00   182.32     0  00:36           0      0.0324      -0.360
  PMP92880             JUNCTION      0.00   152.69     0  00:38           0       0.489       0.263
  PMP92881             JUNCTION      0.00   201.95     0  00:38           0       0.395      -0.498
  PMP92882             JUNCTION      0.00   152.70     0  00:37           0       0.488      -0.108
  PMP92883             JUNCTION      0.00     0.00     0  00:00           0           0       0.000 ltr
  PMP92884             JUNCTION    612.85   612.85     0  00:45       0.798       0.798      -0.002
  PMP92885             JUNCTION      0.00   947.53     0  00:32           0         3.2       0.019
  PMP92886             JUNCTION      0.00   152.52     0  00:45           0       0.449      -0.017
  PMP92886GA1          JUNCTION      0.00   152.52     0  00:44           0       0.449       0.047
  PMP92887             JUNCTION      0.00     0.00     0  00:00           0           0       0.000 ltr
  PMP92888             JUNCTION      0.00   200.88     0  00:29           0       0.575      -0.003
  PMP92889             JUNCTION      0.00     0.00     0  00:00           0           0       0.000 ltr
  PMP92890             JUNCTION      0.00   155.31     0  03:26           0       0.489       0.052
  PMP92891             JUNCTION      0.00  2942.96     0  00:41           0        7.96       0.313
  PMP92891GA25         JUNCTION      0.00  4517.26     0  01:25           0        7.97      -0.041
  PMP92892             JUNCTION      0.00   173.84     0  00:39           0        0.44      -0.003
  PMP92893             JUNCTION      0.00  1323.40     0  01:20           0        2.41      -0.461
  PMP92893GA18         JUNCTION      0.00  2827.57     0  01:20           0       0.508      -9.995
  PMP92894             JUNCTION      0.00   221.44     0  00:56           0       0.473       0.000
  PMP92895             JUNCTION      0.00   506.94     0  02:56           0       0.562       0.328
  PMP92896             JUNCTION      0.00   937.24     0  00:46           0        2.21       0.005
  PMP92897             JUNCTION      0.00   830.64     0  00:36           0        2.04       0.009
  PMP92898             JUNCTION      0.00   504.63     0  00:41           0        1.39       0.011
  PMP92899             JUNCTION      0.00   207.81     0  01:00           0       0.749       0.000
  PMP92900             JUNCTION      0.00  2704.36     0  02:50           0       0.626       0.447
  PMP92901             JUNCTION      0.00   189.02     0  00:25           0       0.669      -0.143
  PMP92901GB20         JUNCTION      0.00   189.00     0  00:48           0        0.67       0.099
  PMP92902             JUNCTION      0.00     0.00     0  00:00           0           0       0.000 ltr
[...]
  PLT85590                    1.06      1.06      1.69      0.01         0.01
  PLT85601                    1.07      1.07      1.11      0.44         0.44
  PLT85613                    0.85      0.85      0.86      0.01         0.01
  PLT85614                    0.86      0.86      2.23      0.01         0.01
  PLT85615                    0.87      0.87      3.08      0.01         0.01
  PLT85616                    0.01      0.01      0.38      0.01         0.01
  PLT85617                    0.38      0.38      1.02      0.01         0.01
  PLT85619                    0.73      0.80      0.74      0.83         0.73
  PLT85620                    0.62      0.62      0.70      0.49         0.49
  PLT85621                    0.01      0.01      0.28      0.01         0.01
  PLT85622                    0.01      0.56      0.01      0.60         0.01
  PLT85627                    0.72      0.72      1.77      0.04         0.04
  PLT85628                    0.52      0.52      2.17      0.01         0.01
  PLT85629                    0.20      0.56      0.52      0.59         0.17
  PLT85630                    2.38      2.38      2.46      0.01         0.01
  PLT85631                    0.01      0.01      0.01      0.01         0.01
  PLT85632                    0.01      0.29      0.01      0.34         0.01
  PLT85634                    0.01      0.01      2.43      0.01         0.01
  PLT85636                    0.01      0.01      0.01      0.01         0.01
  PLT85637                    0.05      0.05      0.08      0.01         0.01
  PLT85638                    0.08      0.08      0.15      0.01         0.01
  PLT85639                    0.15      0.15      0.35      0.04         0.03
  PLT85640                    0.63      0.63      0.97      0.60         0.57
  PLT85641                    0.01      0.01      0.53      0.01         0.01
  PLT85642                    0.53      0.53      0.64      0.57         0.52
  PLT85643                    0.32      0.32      2.17      0.01         0.01
  PLT85644                    0.01      0.01      2.11      0.01         0.01
  PLT85647                    0.26      0.26      0.27      0.26         0.18
  PLT85648                    0.50      0.50      0.57      0.01         0.01
  PLT85650                    0.01      0.01      0.01      0.01         0.01
  PLT85651                    0.88      0.88      0.89      0.01         0.03
  PLT85652                    1.33      1.33      3.26      0.01         0.02
  PLT85653                    0.01      0.36      0.01      0.43         0.01
  PLT85656                    0.01      0.01      0.01      0.01         0.01
  PLT85663                    0.99      0.99      1.05      0.01         0.01
  PLT85664                    0.01      0.57      0.01      0.61         0.01
  PLT85665                    0.01      0.01      0.01      0.87         0.01
  PLT85666                    0.01      0.01      0.99      0.01         0.01
  PLT85674                    0.01      0.01      1.25      0.01         0.01
  PLT85676                    0.01      0.77      0.01      0.80         0.01
  PLT85677                    0.84      0.84      0.97      0.82         0.82
  PLT85678                    0.01      0.86      0.01      1.02         0.01
  PLT85682                    0.01      0.68      0.01      0.73         0.01
  PLT85684                    0.55      0.90      0.55      1.11         0.55
  PLT85686                    0.51      0.51      3.73      0.01         0.01
  PLT85687                    0.47      0.47      0.64      0.07         0.12
  PLT85689                    0.01      0.54      0.01      0.70         0.01
  PLT85690                    0.01      0.01      0.54      0.01         0.01
  PLT85691                    0.54      0.54      0.54      0.56         0.53
  PLT85692                    0.01      0.01      0.01      0.60         0.01
  PLT85693                    0.92      0.92      0.99      0.01         0.01
  PLT85694                    0.64      0.64      0.83      0.01         0.01
  PLT85697                    0.01      0.01      0.52      0.01         0.01
  PLT85698                    1.59      1.60      1.68      0.38         0.38
  PLT85699                    1.68      1.68      3.67      0.01         0.01
  PLT85700                    0.01      0.01      0.01      0.54         0.01
  PLT85707                    0.03      0.03      0.33      0.01         0.01
  PLT85708                    0.01      0.01      0.09      0.01         0.01
  PLT85709                    0.03      0.03      0.08      0.01         0.01
  PLT85711                    0.17      0.17      0.18      0.15         0.14
  PLT85712                    0.01      0.18      0.01      0.22         0.01
  PLT85716                    0.01      0.63      0.01      0.66         0.01
  PLT85722                    0.01      0.01      0.31      0.01         0.01
  PLT85724                    0.35      0.35      0.58      0.31         0.31
  PLT85725                    1.19      1.19      3.46      0.01         0.01
  PLT85726                    0.57      0.69      0.57      0.76         0.57
  PLT85727                    0.10      0.10      0.93      0.01         0.01
  PLT85728                    0.01      0.01      0.20      0.01         0.01
  PLT85729                    0.54      0.54      0.92      0.01         0.01
  PLT85730                    0.69      0.69      1.07      0.01         0.01
  PLT85732                    0.49      0.60      0.49      0.64         0.49
  PLT85733                    0.38      0.38      0.60      0.01         0.01
  PLT85734                    0.47      0.47      0.63      0.01         0.01
  PLT85735                    0.60      0.60      1.77      0.01         0.01
  PLT85736                    0.47      0.47      0.85      0.38         0.38
  PLT85737                    0.01      0.01      0.48      0.01         0.01
  PLT85738                    0.01      0.01      2.04      0.01         0.01
  PLT85739                    0.08      0.08      0.14      0.01         0.01
  PLT85740                    0.13      0.14      0.15      0.10         0.05
  PLT85741                    1.98      1.99      2.19      0.01         0.01
  PLT85742                    2.56      2.56      2.60      0.01         0.01
  PLT85743                    3.76      3.76      3.78      0.01         0.01
  PLT85745                    1.05      1.05      1.73      0.01         0.01
  PLT85746                    0.49      0.49      0.57      0.49         0.48
  PLT85751                    0.29      0.29      0.29      0.57         0.19
  PLT85752                    0.27      0.27      0.29      0.01         0.01
  PLT85761                    0.01      0.01      2.15      0.01         0.01
  PLT85764                    0.01      0.01      0.53      0.01         0.01
  PLT85767                    0.52      0.52      0.58      0.43         0.43
  PLT85769                    0.47      0.49      0.49      0.52         0.40
  PLT85770                    0.41      0.41      0.49      0.01         0.02
  PLT85771                    0.01      0.01      0.44      0.01         0.01
  PLT85773                    0.01      0.03      0.01      0.08         0.01
  PLT85775                    0.87      0.87      3.17      0.80         0.80
  PLT85783                    0.65      0.81      0.65      0.99         0.65
  PLT85784                    0.01      0.01      0.05      0.01         0.01
  PLT85785                    0.47      0.47      0.76      0.01         0.01
  PLT85788                    0.01      0.01      0.01      0.03         0.01
  PLT85789                    0.01      0.01      0.72      0.01         0.01
  PLT85790                    0.01      0.01      0.54      0.01         0.01
  PLT85791                    0.01      0.01      0.15      0.01         0.01
  PLT85792                    0.01      0.01      0.01      0.59         0.01
  PLT85794                    0.30      0.30      0.39      0.26         0.26
  PLT85795                    0.23      0.23      0.30      0.01         0.01
  PLT85800                    0.43      0.43      0.60      0.43         0.42
  PLT85808                    0.01      0.52      0.01      0.55         0.01
  PLT85809                    0.01      0.01      2.53      0.01         0.01
  PLT85810                    0.01      0.01      0.08      0.01         0.01
  PLT85812                    0.41      0.41      0.75      0.01         0.01
  PLT85813                    0.33      0.33      0.73      0.01         0.01
  PLT85815                    0.47      0.48      0.49      0.43         0.37
  PLT85816                    0.44      0.44      0.51      0.12         0.12
  PLT85817                    0.36      0.36      0.42      0.12         0.01
  PLT85818                    3.25      3.26      3.28      0.42         0.61
  PLT85819                    0.53      0.58      0.53      0.63         0.53
  PLT85820                    0.62      0.62      0.77      0.65         0.62
  PLT85823                    0.59      0.59      0.70      0.57         0.57
  PLT85826                    0.01      0.70      0.01      0.71         0.01
  PLT85827                    0.01      0.01      0.78      0.01         0.01
  PLT85828                    0.78      0.78      1.00      0.01         0.01
  PLT85833                    1.08      1.08      1.10      0.63         0.63
  PLT85837                    0.41      0.42      0.46      0.17         0.11
  PLT85838                    0.41      0.41      0.53      0.38         0.37
  PLT85840                    0.46      0.46      0.62      0.01         0.01
  PLT85841                    0.30      0.30      1.19      0.01         0.01
  PLT85842                    0.64      0.64      0.81      0.31         0.31
  PLT85843                    1.74      1.74      1.77      0.01         0.01
  PLT85844                    0.43      0.43      1.74      0.01         0.01
  PLT85845                    0.01      0.01      0.43      0.01         0.01
  PLT85848                    0.01      0.01      0.01      0.56         0.01
  PLT85849                    0.57      0.57      0.74      0.01         0.01
  PLT85850                    0.89      0.89      3.53      0.01         0.01
  PLT85851                    0.81      0.81      0.81      0.90         0.80
  PLT85852                    0.55      0.55      0.72      0.01         0.01
  PLT85853                    3.22      3.22      3.26      0.01         0.01
  PLT85854                    0.36      0.37      0.36      0.42         0.35
  PLT85856                    0.84      0.84      0.85      0.01         0.01
  PLT85857                    0.60      0.60      0.62      0.58         0.58
  PLT85858                    0.48      0.62      0.48      0.68         0.48
  PLT85859                    0.65      0.67      0.65      0.70         0.65
  PLT85860                    0.47      0.50      0.47      0.54         0.47
  PLT85861                    0.22      0.22      0.40      0.01         0.01
  PLT85862                    0.01      0.01      0.36      0.01         0.01
  PLT85863                    0.64      0.64      1.47      0.01         0.01
  PLT85864                    1.47      1.47      1.74      0.61         0.01
  PLT85865                    0.98      0.98      0.99      0.01         0.01
  PLT85869                    0.01      0.65      0.01      0.76         0.01
  PLT85872                    0.01      0.67      0.01      0.71         0.01
  PLT85881                    0.01      0.01      0.14      0.01         0.01
  PLT85884                    0.46      0.46      0.53      0.08         0.05
  PLT85885                    0.50      0.52      0.53      0.55         0.49
  PLT85887                    0.27      0.39      0.27      0.45         0.27
  PLT85890                    0.01      0.01      0.05      0.01         0.01
  PLT85892                    1.09      1.10      1.10      0.01         0.01
  PLT85900                    0.01      0.01      0.01      0.50         0.01
  PLT85902                    0.48      0.48      0.63      0.51         0.48
  PLT85903                    0.01      0.01      0.30      0.01         0.01
  PLT85904                    0.01      0.87      0.01      0.85         0.01
  PLT85906                    0.27      0.27      0.66      0.06         0.06
  PLT85912                    0.67      0.69      0.67      0.72         0.67
  PLT85916                    0.01      0.01      0.47      0.01         0.01
  PLT85917                    0.01      0.01      0.09      0.01         0.01
  PLT85918                    1.77      1.77      1.85      0.01         0.01
  PLT85919                    0.35      0.35      0.65      0.01         0.01
  PLT85921                    1.00      1.00      1.03      0.09         0.19
  PLT85922                    0.43      0.43      0.45      0.34         0.32
  PLT85923                    0.43      0.44      0.43      0.82         0.43
  PLT85924                    0.90      0.90      1.00      0.01         0.01
  PLT85925                    0.88      0.88      0.90      0.55         0.44
  PLT85926                    0.95      0.98      1.05      0.78         0.70
  PLT85927                    0.80      0.80      0.83      0.01         0.01
  PLT85928                    0.04      0.06      0.06      0.06         0.03
  PLT85929                    0.90      0.90      3.57      0.01         0.01
  PLT85930                    2.39      2.41      2.42      0.03         0.03
  PLT85931                    0.84      0.84      0.87      0.01         0.01
  PLT85932                    0.01      0.01      0.01      0.01         0.01
  PLT85933                    3.08      3.08      3.15      0.02         0.01
  PLT85934                    2.90      2.90      3.08      0.01         0.30
  PLT85940                    0.44      0.45      0.44      0.54         0.43
  PLT85941                    0.46      0.49      0.46      1.01         0.46
  PLT85942                    0.72      0.72      0.84      0.01         0.01
  PLT85943                    1.67      1.67      2.19      0.13         0.13
  PLT85944                    0.01      0.01      0.02      0.01         0.01
  PLT85945                    0.02      0.02      0.50      0.01         0.01
  PLT85948                    0.11      0.11      0.27      0.01         0.01
  PLT85949                    0.27      0.27      0.32      0.01         0.01
  PLT85950                    0.27      0.27      0.30      0.10         0.08
  PLT85951                    0.30      0.30      1.67      0.05         0.06
  PLT85952                    0.19      0.19      1.56      0.01         0.01
  PLT85953                    0.59      0.65      0.59      0.69         0.59
  PLT85954                    0.01      0.01      0.12      0.01         0.01
  PLT85955                    1.24      1.24      2.40      0.01         0.01
  PLT85956                    2.19      2.19      2.32      0.01         0.01
  PLT85957                    0.70      0.70      0.98      0.69         0.66
  PLT85958                    0.01      0.01      3.48      0.01         0.01
  PLT85959                    1.02      1.05      1.02      1.09         1.02
  PLT85960                    0.61      0.61      0.77      0.01         0.01
  PLT85961                    0.01      0.01      0.01      0.59         0.01
  PLT85962                    0.01      0.01      3.35      0.01         0.01
  PLT85966                    0.89      0.89      0.91      0.77         0.76
  PLT85972                    0.27      0.47      0.27      0.40         0.16
  PLT85973                    0.75      0.77      0.75      1.16         0.74
  PLT85974                    0.69      0.69      0.71      0.18         0.06
  PLT85975                    0.01      0.58      0.01      0.74         0.01
  PLT85976                    0.01      0.01      0.42      0.01         0.01
  PLT85977                    0.42      0.42      0.43      0.17         0.02
  PLT85978                    0.43      0.43      0.53      0.01         0.01
  PLT85979                    0.50      0.50      1.13      0.01         0.01
  PLT85980                    0.66      0.66      0.85      0.01         0.01
  PLT85981                    0.38      0.38      3.41      0.01         0.01
  PLT85982                    0.01      0.01      0.01      0.01         0.01
  PLT85983                    0.01      0.01      0.15      0.01         0.01
  PLT85984                    0.15      0.15      2.58      0.01         0.01
  PLT85986                    0.80      0.81      1.74      0.36         0.30
  PLT85987                    1.74      1.74      3.41      0.01         0.01
  PLT85988                    1.07      1.07      1.80      0.02         0.03
  PLT85989                    1.64      1.64      3.13      0.01         0.01
  PLT85990                    0.01      0.01      0.05      0.01         0.01
  PLT86004                    2.32      2.32      3.03      0.28         0.31
  PLT86005                    3.03      3.03      3.22      0.04         0.05
  PLT86007                    0.08      0.08      0.24      0.01         0.01
  PLT86008                    0.91      0.91      0.94      0.53         0.15
  PLT86009                    0.75      0.91      0.80      0.61         0.37
  PLT86014                    0.01      0.01      0.30      0.01         0.01
  PLT86015                    1.03      1.03      1.07      0.38         0.38
  PLT86019                    0.88      0.88      2.38      0.01         0.01
  PLT86020                    0.44      0.44      0.48      0.04         0.01
  PLT86021                    0.44      0.56      0.44      0.64         0.44
  PLT86022                    0.56      0.58      0.56      0.63         0.56
  PLT86023                    0.26      0.26      0.33      0.01         0.01
  PLT86024                    0.24      0.24      0.31      0.01         0.01
  PLT86025                    0.21      0.21      0.24      0.01         0.01
  PLT86026                    0.89      0.89      2.14      0.01         0.01
  PLT86028                    0.85      0.85      0.88      0.01         0.01
  PLT86029                    0.88      0.88      0.92      0.04         0.04
  PLT86030                    0.99      0.99      1.05      0.01         0.01
  PLT86031                    0.83      0.83      1.05      0.01         0.01
  PLT86032                    0.85      0.85      0.88      0.01         0.02
  PLT86036                    0.57      0.57      0.58      0.01         0.01
  PLT86042                    1.11      1.11      1.15      0.01         0.01
  PLT86043                    1.15      1.15      1.20      0.22         0.21
  PLT86044                    0.80      0.81      0.80      0.97         0.80
  PLT86045                    0.69      0.72      0.81      0.60         0.50
  PLT86046                    0.80      0.81      0.92      0.56         0.47
  PLT86047                    0.84      0.84      0.86      0.01         0.01
  PLT86048                    0.86      0.86      0.88      0.01         0.01
  PLT86049                    0.88      0.88      2.46      0.01         0.01
  PLT86050                    0.85      0.85      0.88      0.01         0.01
  PLT86051                    0.85      0.85      0.88      0.01         0.01
  PLT86052                    0.54      0.55      0.60      0.54         0.40
  PLT86053                    0.60      0.60      0.72      0.01         0.01
  PLT86054                    2.14      2.14      2.38      0.01         0.01
  PLT86056                    0.01      0.01      0.01      0.09         0.01
  PLV86064                    0.01      0.01      0.09      0.01         0.01
  

  Analysis begun on:  Tue Nov  1 16:35:20 2022
  Analysis ended on:  Tue Nov  1 16:35:36 2022
  Total elapsed time: 00:00:16